data/feeder_12/Lines_1.txt
! Imported from Lines.txt, with modified linecodes
! ----------------------------------------------------------------------------------------------
New Line.LINE_1_0 Bus1=1_sourcebus.1.2.3.4 Bus2=1_1.1.2.3.4 phases=4 Linecode=LC3 Length=1 Units=m
New Line.LINE_1_1 Bus1=1_1.1.2.3.4 Bus2=1_2.1.2.3.4 phases=4 Linecode=LC3 Length=1.098 Units=m
New Line.LINE_1_2 Bus1=1_2.1.2.3.4 Bus2=1_3.1.2.3.4 phases=4 Linecode=LC3 Length=0.11511 Units=m
New Line.LINE_1_3 Bus1=1_3.1.2.3.4 Bus2=1_4.1.2.3.4 phases=4 Linecode=LC3 Length=0.10784 Units=m
New Line.LINE_1_4 Bus1=1_4.1.2.3.4 Bus2=1_5.1.2.3.4 phases=4 Linecode=LC3 Length=0.094021 Units=m
New Line.LINE_1_5 Bus1=1_5.1.2.3.4 Bus2=1_6.1.2.3.4 phases=4 Linecode=LC3 Length=0.14812 Units=m
New Line.LINE_1_6 Bus1=1_6.1.2.3.4 Bus2=1_7.1.2.3.4 phases=4 Linecode=LC3 Length=10.0863 Units=m
New Line.LINE_1_7 Bus1=1_7.1.2.3.4 Bus2=1_8.1.2.3.4 phases=4 Linecode=LC3 Length=0.45175 Units=m
New Line.LINE_1_8 Bus1=1_8.1.2.3.4 Bus2=1_9.1.2.3.4 phases=4 Linecode=LC3 Length=0.376 Units=m
New Line.LINE_1_9 Bus1=1_9.1.2.3.4 Bus2=1_10.1.2.3.4 phases=4 Linecode=LC3 Length=0.32997 Units=m
New Line.LINE_1_10 Bus1=1_10.1.2.3.4 Bus2=1_11.1.2.3.4 phases=4 Linecode=LC3 Length=0.24622 Units=m
New Line.LINE_1_11 Bus1=1_11.1.2.3.4 Bus2=1_12.1.2.3.4 phases=4 Linecode=LC3 Length=0.23114 Units=m
New Line.LINE_1_12 Bus1=1_12.1.2.3.4 Bus2=1_13.1.2.3.4 phases=4 Linecode=LC3 Length=0.14213 Units=m
New Line.LINE_1_13 Bus1=1_13.1.2.3.4 Bus2=1_14.1.2.3.4 phases=4 Linecode=LC3 Length=0.35384 Units=m
New Line.LINE_1_14 Bus1=1_14.1.2.3.4 Bus2=1_15.1.2.3.4 phases=4 Linecode=LC3 Length=2.8664 Units=m
New Line.LINE_1_15 Bus1=1_15.1.2.3.4 Bus2=1_16.1.2.3.4 phases=4 Linecode=LC6 Length=0.09654 Units=m
New Line.LINE_1_16 Bus1=1_15.1.2.3.4 Bus2=1_17.1.2.3.4 phases=4 Linecode=LC3 Length=3.476 Units=m
New Line.LINE_1_17 Bus1=1_16.1.2.3.4 Bus2=1_18.1.2.3.4 phases=4 Linecode=LC6 Length=0.044045 Units=m
New Line.LINE_1_18 Bus1=1_17.1.2.3.4 Bus2=1_19.1.2.3.4 phases=4 Linecode=LC3 Length=0.23917 Units=m
New Line.LINE_1_19 Bus1=1_18.1.2.3.4 Bus2=1_20.1.2.3.4 phases=4 Linecode=LC6 Length=0.046174 Units=m
New Line.LINE_1_20 Bus1=1_19.1.2.3.4 Bus2=1_21.1.2.3.4 phases=4 Linecode=LC3 Length=0.26856 Units=m
New Line.LINE_1_21 Bus1=1_20.1.2.3.4 Bus2=1_22.1.2.3.4 phases=4 Linecode=LC6 Length=0.041976 Units=m
New Line.LINE_1_22 Bus1=1_21.1.2.3.4 Bus2=1_23.1.2.3.4 phases=4 Linecode=LC3 Length=0.43727 Units=m
New Line.LINE_1_23 Bus1=1_22.1.2.3.4 Bus2=1_24.1.2.3.4 phases=4 Linecode=LC6 Length=0.051245 Units=m
New Line.LINE_1_24 Bus1=1_23.1.2.3.4 Bus2=1_25.1.2.3.4 phases=4 Linecode=LC3 Length=0.7955 Units=m
New Line.LINE_1_25 Bus1=1_24.1.2.3.4 Bus2=1_26.1.2.3.4 phases=4 Linecode=LC6 Length=0.055902 Units=m
New Line.LINE_1_26 Bus1=1_25.1.2.3.4 Bus2=1_27.1.2.3.4 phases=4 Linecode=LC1 Length=5.9049 Units=m
New Line.LINE_1_27 Bus1=1_25.1.2.3.4 Bus2=1_28.1.2.3.4 phases=4 Linecode=LC3 Length=9.9686 Units=m
New Line.LINE_1_28 Bus1=1_26.1.2.3.4 Bus2=1_29.1.2.3.4 phases=4 Linecode=LC6 Length=0.054562 Units=m
New Line.LINE_1_29 Bus1=1_27.1.2.3.4 Bus2=1_30.1.2.3.4 phases=4 Linecode=LC1 Length=1.6265 Units=m
New Line.LINE_1_30 Bus1=1_27.1.2.3.4 Bus2=1_31.1.2.3.4 phases=4 Linecode=LC1 Length=1.5847 Units=m
New Line.LINE_1_31 Bus1=1_28.1.2.3.4 Bus2=1_32.1.2.3.4 phases=4 Linecode=LC3 Length=2.6538 Units=m
New Line.LINE_1_32 Bus1=1_29.1.2.3.4 Bus2=1_33.1.2.3.4 phases=4 Linecode=LC6 Length=0.14629 Units=m
New Line.LINE_1_33 Bus1=1_30.1.2.3.4 Bus2=1_34.1.2.3.4 phases=4 Linecode=LC1 Length=3.7248 Units=m
New Line.LINE_1_34 Bus1=1_31.1.2.3.4 Bus2=1_35.1.2.3.4 phases=4 Linecode=LC1 Length=0.053666 Units=m
New Line.LINE_1_35 Bus1=1_32.1.2.3.4 Bus2=1_36.1.2.3.4 phases=4 Linecode=LC1 Length=5.7265 Units=m
New Line.LINE_1_36 Bus1=1_32.1.2.3.4 Bus2=1_37.1.2.3.4 phases=4 Linecode=LC3 Length=8.0244 Units=m
New Line.LINE_1_37 Bus1=1_33.1.2.3.4 Bus2=1_38.1.2.3.4 phases=4 Linecode=LC6 Length=0.13648 Units=m
New Line.LINE_1_38 Bus1=1_35.1.2.3.4 Bus2=1_39.1.2.3.4 phases=4 Linecode=LC1 Length=0.077162 Units=m
New Line.LINE_1_39 Bus1=1_36.1.2.3.4 Bus2=1_40.1.2.3.4 phases=4 Linecode=LC1 Length=0.40004 Units=m
New Line.LINE_1_40 Bus1=1_36.1.2.3.4 Bus2=1_41.1.2.3.4 phases=4 Linecode=LC1 Length=1.8063 Units=m
New Line.LINE_1_41 Bus1=1_37.1.2.3.4 Bus2=1_42.1.2.3.4 phases=4 Linecode=LC3 Length=5.5684 Units=m
New Line.LINE_1_42 Bus1=1_37.1.2.3.4 Bus2=1_43.1.2.3.4 phases=4 Linecode=LC7 Length=0.21675 Units=m
New Line.LINE_1_43 Bus1=1_38.1.2.3.4 Bus2=1_44.1.2.3.4 phases=4 Linecode=LC6 Length=0.033838 Units=m
New Line.LINE_1_44 Bus1=1_39.1.2.3.4 Bus2=1_45.1.2.3.4 phases=4 Linecode=LC1 Length=0.098955 Units=m
New Line.LINE_1_45 Bus1=1_40.1.2.3.4 Bus2=1_46.1.2.3.4 phases=4 Linecode=LC1 Length=0.18031 Units=m
New Line.LINE_1_46 Bus1=1_41.1.2.3.4 Bus2=1_47.1.2.3.4 phases=4 Linecode=LC1 Length=4.3463 Units=m
New Line.LINE_1_47 Bus1=1_42.1.2.3.4 Bus2=1_48.1.2.3.4 phases=4 Linecode=LC3 Length=4.2078 Units=m
New Line.LINE_1_48 Bus1=1_43.1.2.3.4 Bus2=1_49.1.2.3.4 phases=4 Linecode=LC7 Length=0.10436 Units=m
New Line.LINE_1_49 Bus1=1_44.1.2.3.4 Bus2=1_50.1.2.3.4 phases=4 Linecode=LC6 Length=0.048104 Units=m
New Line.LINE_1_50 Bus1=1_45.1.2.3.4 Bus2=1_51.1.2.3.4 phases=4 Linecode=LC1 Length=0.241 Units=m
New Line.LINE_1_51 Bus1=1_46.1.2.3.4 Bus2=1_52.1.2.3.4 phases=4 Linecode=LC1 Length=0.19109 Units=m
New Line.LINE_1_52 Bus1=1_48.1.2.3.4 Bus2=1_53.1.2.3.4 phases=4 Linecode=LC3 Length=0.60668 Units=m
New Line.LINE_1_53 Bus1=1_48.1.2.3.4 Bus2=1_54.1.2.3.4 phases=4 Linecode=LC3 Length=0.63949 Units=m
New Line.LINE_1_54 Bus1=1_49.1.2.3.4 Bus2=1_55.1.2.3.4 phases=4 Linecode=LC7 Length=0.11625 Units=m
New Line.LINE_1_55 Bus1=1_50.1.2.3.4 Bus2=1_56.1.2.3.4 phases=4 Linecode=LC6 Length=0.087664 Units=m
New Line.LINE_1_56 Bus1=1_51.1.2.3.4 Bus2=1_57.1.2.3.4 phases=4 Linecode=LC1 Length=0.20634 Units=m
New Line.LINE_1_57 Bus1=1_52.1.2.3.4 Bus2=1_58.1.2.3.4 phases=4 Linecode=LC1 Length=0.182 Units=m
New Line.LINE_1_58 Bus1=1_53.1.2.3.4 Bus2=1_59.1.2.3.4 phases=4 Linecode=LC3 Length=2.7481 Units=m
New Line.LINE_1_59 Bus1=1_54.1.2.3.4 Bus2=1_60.1.2.3.4 phases=4 Linecode=LC3 Length=0.065368 Units=m
New Line.LINE_1_60 Bus1=1_55.1.2.3.4 Bus2=1_61.1.2.3.4 phases=4 Linecode=LC7 Length=0.10028 Units=m
New Line.LINE_1_61 Bus1=1_56.1.2.3.4 Bus2=1_62.1.2.3.4 phases=4 Linecode=LC6 Length=0.078 Units=m
New Line.LINE_1_62 Bus1=1_57.1.2.3.4 Bus2=1_63.1.2.3.4 phases=4 Linecode=LC1 Length=0.98912 Units=m
New Line.LINE_1_63 Bus1=1_58.1.2.3.4 Bus2=1_64.1.2.3.4 phases=4 Linecode=LC1 Length=0.109 Units=m
New Line.LINE_1_64 Bus1=1_59.1.2.3.4 Bus2=1_65.1.2.3.4 phases=4 Linecode=LC3 Length=0.55868 Units=m
New Line.LINE_1_65 Bus1=1_59.1.2.3.4 Bus2=1_66.1.2.3.4 phases=4 Linecode=LC1 Length=8.2583 Units=m
New Line.LINE_1_66 Bus1=1_60.1.2.3.4 Bus2=1_67.1.2.3.4 phases=4 Linecode=LC3 Length=0.074 Units=m
New Line.LINE_1_67 Bus1=1_61.1.2.3.4 Bus2=1_68.1.2.3.4 phases=4 Linecode=LC7 Length=0.096042 Units=m
New Line.LINE_1_68 Bus1=1_62.1.2.3.4 Bus2=1_69.1.2.3.4 phases=4 Linecode=LC6 Length=0.083241 Units=m
New Line.LINE_1_69 Bus1=1_63.1.2.3.4 Bus2=1_70.1.2.3.4 phases=4 Linecode=LC1 Length=3.4962 Units=m
New Line.LINE_1_70 Bus1=1_64.1.2.3.4 Bus2=1_71.1.2.3.4 phases=4 Linecode=LC1 Length=0.21385 Units=m
New Line.LINE_1_71 Bus1=1_65.1.2.3.4 Bus2=1_72.1.2.3.4 phases=4 Linecode=LC3 Length=6.6006 Units=m
New Line.LINE_1_72 Bus1=1_66.1.2.3.4 Bus2=1_73.1.2.3.4 phases=4 Linecode=LC1 Length=4.0366 Units=m
New Line.LINE_1_73 Bus1=1_66.1.2.3.4 Bus2=1_74.1.2.3.4 phases=4 Linecode=LC1 Length=4.0366 Units=m
New Line.LINE_1_74 Bus1=1_67.1.2.3.4 Bus2=1_75.1.2.3.4 phases=4 Linecode=LC3 Length=0.17951 Units=m
New Line.LINE_1_75 Bus1=1_68.1.2.3.4 Bus2=1_76.1.2.3.4 phases=4 Linecode=LC7 Length=0.23551 Units=m
New Line.LINE_1_76 Bus1=1_69.1.2.3.4 Bus2=1_77.1.2.3.4 phases=4 Linecode=LC6 Length=0.38907 Units=m
New Line.LINE_1_77 Bus1=1_71.1.2.3.4 Bus2=1_78.1.2.3.4 phases=4 Linecode=LC1 Length=1.0838 Units=m
New Line.LINE_1_78 Bus1=1_72.1.2.3.4 Bus2=1_79.1.2.3.4 phases=4 Linecode=LC3 Length=2.3008 Units=m
New Line.LINE_1_79 Bus1=1_75.1.2.3.4 Bus2=1_80.1.2.3.4 phases=4 Linecode=LC3 Length=0.10362 Units=m
New Line.LINE_1_80 Bus1=1_76.1.2.3.4 Bus2=1_81.1.2.3.4 phases=4 Linecode=LC7 Length=0.7469 Units=m
New Line.LINE_1_81 Bus1=1_77.1.2.3.4 Bus2=1_82.1.2.3.4 phases=4 Linecode=LC6 Length=0.51088 Units=m
New Line.LINE_1_82 Bus1=1_78.1.2.3.4 Bus2=1_83.1.2.3.4 phases=4 Linecode=LC1 Length=4.084 Units=m
New Line.LINE_1_83 Bus1=1_79.1.2.3.4 Bus2=1_84.1.2.3.4 phases=4 Linecode=LC3 Length=0.50211 Units=m
New Line.LINE_1_84 Bus1=1_80.1.2.3.4 Bus2=1_85.1.2.3.4 phases=4 Linecode=LC3 Length=0.11122 Units=m
New Line.LINE_1_85 Bus1=1_81.1.2.3.4 Bus2=1_86.1.2.3.4 phases=4 Linecode=LC7 Length=1.4388 Units=m
New Line.LINE_1_86 Bus1=1_82.1.2.3.4 Bus2=1_87.1.2.3.4 phases=4 Linecode=LC6 Length=0.31045 Units=m
New Line.LINE_1_87 Bus1=1_84.1.2.3.4 Bus2=1_88.1.2.3.4 phases=4 Linecode=LC3 Length=1.0182 Units=m
New Line.LINE_1_88 Bus1=1_85.1.2.3.4 Bus2=1_89.1.2.3.4 phases=4 Linecode=LC3 Length=0.1048 Units=m
New Line.LINE_1_89 Bus1=1_86.1.2.3.4 Bus2=1_90.1.2.3.4 phases=4 Linecode=LC7 Length=0.34251 Units=m
New Line.LINE_1_90 Bus1=1_87.1.2.3.4 Bus2=1_91.1.2.3.4 phases=4 Linecode=LC6 Length=0.11206 Units=m
New Line.LINE_1_91 Bus1=1_88.1.2.3.4 Bus2=1_92.1.2.3.4 phases=4 Linecode=LC3 Length=0.96021 Units=m
New Line.LINE_1_92 Bus1=1_90.1.2.3.4 Bus2=1_93.1.2.3.4 phases=4 Linecode=LC7 Length=0.065307 Units=m
New Line.LINE_1_93 Bus1=1_91.1.2.3.4 Bus2=1_94.1.2.3.4 phases=4 Linecode=LC6 Length=0.034785 Units=m
New Line.LINE_1_94 Bus1=1_92.1.2.3.4 Bus2=1_95.1.2.3.4 phases=4 Linecode=LC3 Length=0.55811 Units=m
New Line.LINE_1_95 Bus1=1_93.1.2.3.4 Bus2=1_96.1.2.3.4 phases=4 Linecode=LC7 Length=0.086052 Units=m
New Line.LINE_1_96 Bus1=1_94.1.2.3.4 Bus2=1_97.1.2.3.4 phases=4 Linecode=LC6 Length=0.03677 Units=m
New Line.LINE_1_97 Bus1=1_95.1.2.3.4 Bus2=1_98.1.2.3.4 phases=4 Linecode=LC3 Length=0.36859 Units=m
New Line.LINE_1_98 Bus1=1_96.1.2.3.4 Bus2=1_99.1.2.3.4 phases=4 Linecode=LC7 Length=0.037216 Units=m
New Line.LINE_1_99 Bus1=1_97.1.2.3.4 Bus2=1_100.1.2.3.4 phases=4 Linecode=LC6 Length=0.089588 Units=m
New Line.LINE_1_100 Bus1=1_98.1.2.3.4 Bus2=1_101.1.2.3.4 phases=4 Linecode=LC3 Length=0.50892 Units=m
New Line.LINE_1_101 Bus1=1_99.1.2.3.4 Bus2=1_102.1.2.3.4 phases=4 Linecode=LC7 Length=5.0819 Units=m
New Line.LINE_1_102 Bus1=1_100.1.2.3.4 Bus2=1_103.1.2.3.4 phases=4 Linecode=LC6 Length=0.28583 Units=m
New Line.LINE_1_103 Bus1=1_101.1.2.3.4 Bus2=1_104.1.2.3.4 phases=4 Linecode=LC8 Length=0.28838 Units=m
New Line.LINE_1_104 Bus1=1_101.1.2.3.4 Bus2=1_105.1.2.3.4 phases=4 Linecode=LC3 Length=0.33602 Units=m
New Line.LINE_1_105 Bus1=1_102.1.2.3.4 Bus2=1_106.1.2.3.4 phases=4 Linecode=LC7 Length=0.22108 Units=m
New Line.LINE_1_106 Bus1=1_104.1.2.3.4 Bus2=1_107.1.2.3.4 phases=4 Linecode=LC8 Length=0.3489 Units=m
New Line.LINE_1_107 Bus1=1_105.1.2.3.4 Bus2=1_108.1.2.3.4 phases=4 Linecode=LC3 Length=0.19054 Units=m
New Line.LINE_1_108 Bus1=1_106.1.2.3.4 Bus2=1_109.1.2.3.4 phases=4 Linecode=LC7 Length=0.45085 Units=m
New Line.LINE_1_109 Bus1=1_107.1.2.3.4 Bus2=1_110.1.2.3.4 phases=4 Linecode=LC8 Length=0.4044 Units=m
New Line.LINE_1_110 Bus1=1_108.1.2.3.4 Bus2=1_111.1.2.3.4 phases=4 Linecode=LC3 Length=7.5182 Units=m
New Line.LINE_1_111 Bus1=1_109.1.2.3.4 Bus2=1_112.1.2.3.4 phases=4 Linecode=LC7 Length=11.9766 Units=m
New Line.LINE_1_112 Bus1=1_110.1.2.3.4 Bus2=1_113.1.2.3.4 phases=4 Linecode=LC8 Length=0.61659 Units=m
New Line.LINE_1_113 Bus1=1_111.1.2.3.4 Bus2=1_114.1.2.3.4 phases=4 Linecode=LC3 Length=0.75316 Units=m
New Line.LINE_1_114 Bus1=1_112.1.2.3.4 Bus2=1_115.1.2.3.4 phases=4 Linecode=LC7 Length=10.6613 Units=m
New Line.LINE_1_115 Bus1=1_113.1.2.3.4 Bus2=1_116.1.2.3.4 phases=4 Linecode=LC8 Length=0.79271 Units=m
New Line.LINE_1_116 Bus1=1_114.1.2.3.4 Bus2=1_117.1.2.3.4 phases=4 Linecode=LC8 Length=1.1056 Units=m
New Line.LINE_1_117 Bus1=1_114.1.2.3.4 Bus2=1_118.1.2.3.4 phases=4 Linecode=LC4 Length=3.6556 Units=m
New Line.LINE_1_118 Bus1=1_115.1.2.3.4 Bus2=1_119.1.2.3.4 phases=4 Linecode=LC7 Length=0.99464 Units=m
New Line.LINE_1_119 Bus1=1_116.1.2.3.4 Bus2=1_120.1.2.3.4 phases=4 Linecode=LC8 Length=0.56909 Units=m
New Line.LINE_1_120 Bus1=1_117.1.2.3.4 Bus2=1_121.1.2.3.4 phases=4 Linecode=LC6 Length=0.19481 Units=m
New Line.LINE_1_121 Bus1=1_117.1.2.3.4 Bus2=1_122.1.2.3.4 phases=4 Linecode=LC8 Length=0.53831 Units=m
New Line.LINE_1_122 Bus1=1_118.1.2.3.4 Bus2=1_123.1.2.3.4 phases=4 Linecode=LC4 Length=6.5924 Units=m
New Line.LINE_1_123 Bus1=1_119.1.2.3.4 Bus2=1_124.1.2.3.4 phases=4 Linecode=LC7 Length=0.7248 Units=m
New Line.LINE_1_124 Bus1=1_120.1.2.3.4 Bus2=1_125.1.2.3.4 phases=4 Linecode=LC8 Length=0.80412 Units=m
New Line.LINE_1_125 Bus1=1_121.1.2.3.4 Bus2=1_126.1.2.3.4 phases=4 Linecode=LC6 Length=0.16869 Units=m
New Line.LINE_1_126 Bus1=1_122.1.2.3.4 Bus2=1_127.1.2.3.4 phases=4 Linecode=LC8 Length=2.5288 Units=m
New Line.LINE_1_127 Bus1=1_123.1.2.3.4 Bus2=1_128.1.2.3.4 phases=4 Linecode=LC4 Length=2.9646 Units=m
New Line.LINE_1_128 Bus1=1_124.1.2.3.4 Bus2=1_129.1.2.3.4 phases=4 Linecode=LC7 Length=0.62512 Units=m
New Line.LINE_1_129 Bus1=1_125.1.2.3.4 Bus2=1_130.1.2.3.4 phases=4 Linecode=LC8 Length=0.87 Units=m
New Line.LINE_1_130 Bus1=1_126.1.2.3.4 Bus2=1_131.1.2.3.4 phases=4 Linecode=LC6 Length=0.11915 Units=m
New Line.LINE_1_131 Bus1=1_127.1.2.3.4 Bus2=1_132.1.2.3.4 phases=4 Linecode=LC1 Length=3.8212 Units=m
New Line.LINE_1_132 Bus1=1_127.1.2.3.4 Bus2=1_133.1.2.3.4 phases=4 Linecode=LC8 Length=7.1782 Units=m
New Line.LINE_1_133 Bus1=1_128.1.2.3.4 Bus2=1_134.1.2.3.4 phases=4 Linecode=LC4 Length=0.88205 Units=m
New Line.LINE_1_134 Bus1=1_129.1.2.3.4 Bus2=1_135.1.2.3.4 phases=4 Linecode=LC7 Length=1.9203 Units=m
New Line.LINE_1_135 Bus1=1_130.1.2.3.4 Bus2=1_136.1.2.3.4 phases=4 Linecode=LC8 Length=0.82048 Units=m
New Line.LINE_1_136 Bus1=1_131.1.2.3.4 Bus2=1_137.1.2.3.4 phases=4 Linecode=LC6 Length=0.18436 Units=m
New Line.LINE_1_137 Bus1=1_132.1.2.3.4 Bus2=1_138.1.2.3.4 phases=4 Linecode=LC1 Length=0.32908 Units=m
New Line.LINE_1_138 Bus1=1_133.1.2.3.4 Bus2=1_139.1.2.3.4 phases=4 Linecode=LC8 Length=5.3402 Units=m
New Line.LINE_1_139 Bus1=1_134.1.2.3.4 Bus2=1_140.1.2.3.4 phases=4 Linecode=LC4 Length=0.99566 Units=m
New Line.LINE_1_140 Bus1=1_135.1.2.3.4 Bus2=1_141.1.2.3.4 phases=4 Linecode=LC7 Length=1.4127 Units=m
New Line.LINE_1_141 Bus1=1_136.1.2.3.4 Bus2=1_142.1.2.3.4 phases=4 Linecode=LC8 Length=1.349 Units=m
New Line.LINE_1_142 Bus1=1_137.1.2.3.4 Bus2=1_143.1.2.3.4 phases=4 Linecode=LC6 Length=0.21781 Units=m
New Line.LINE_1_143 Bus1=1_138.1.2.3.4 Bus2=1_144.1.2.3.4 phases=4 Linecode=LC1 Length=0.32289 Units=m
New Line.LINE_1_144 Bus1=1_139.1.2.3.4 Bus2=1_145.1.2.3.4 phases=4 Linecode=LC8 Length=3.5762 Units=m
New Line.LINE_1_145 Bus1=1_140.1.2.3.4 Bus2=1_146.1.2.3.4 phases=4 Linecode=LC4 Length=0.9364 Units=m
New Line.LINE_1_146 Bus1=1_141.1.2.3.4 Bus2=1_147.1.2.3.4 phases=4 Linecode=LC7 Length=0.24053 Units=m
New Line.LINE_1_147 Bus1=1_142.1.2.3.4 Bus2=1_148.1.2.3.4 phases=4 Linecode=LC8 Length=6.4142 Units=m
New Line.LINE_1_148 Bus1=1_143.1.2.3.4 Bus2=1_149.1.2.3.4 phases=4 Linecode=LC6 Length=0.19401 Units=m
New Line.LINE_1_149 Bus1=1_144.1.2.3.4 Bus2=1_150.1.2.3.4 phases=4 Linecode=LC1 Length=0.26072 Units=m
New Line.LINE_1_150 Bus1=1_145.1.2.3.4 Bus2=1_151.1.2.3.4 phases=4 Linecode=LC8 Length=3.5713 Units=m
New Line.LINE_1_151 Bus1=1_145.1.2.3.4 Bus2=1_152.1.2.3.4 phases=4 Linecode=LC1 Length=5.1314 Units=m
New Line.LINE_1_152 Bus1=1_146.1.2.3.4 Bus2=1_153.1.2.3.4 phases=4 Linecode=LC4 Length=1.0926 Units=m
New Line.LINE_1_153 Bus1=1_147.1.2.3.4 Bus2=1_154.1.2.3.4 phases=4 Linecode=LC7 Length=0.083096 Units=m
New Line.LINE_1_154 Bus1=1_148.1.2.3.4 Bus2=1_155.1.2.3.4 phases=4 Linecode=LC8 Length=1.3973 Units=m
New Line.LINE_1_155 Bus1=1_149.1.2.3.4 Bus2=1_156.1.2.3.4 phases=4 Linecode=LC6 Length=0.2191 Units=m
New Line.LINE_1_156 Bus1=1_150.1.2.3.4 Bus2=1_157.1.2.3.4 phases=4 Linecode=LC1 Length=0.39132 Units=m
New Line.LINE_1_157 Bus1=1_151.1.2.3.4 Bus2=1_158.1.2.3.4 phases=4 Linecode=LC8 Length=9.4713 Units=m
New Line.LINE_1_158 Bus1=1_152.1.2.3.4 Bus2=1_159.1.2.3.4 phases=4 Linecode=LC1 Length=0.31233 Units=m
New Line.LINE_1_159 Bus1=1_153.1.2.3.4 Bus2=1_160.1.2.3.4 phases=4 Linecode=LC4 Length=0.31439 Units=m
New Line.LINE_1_160 Bus1=1_154.1.2.3.4 Bus2=1_161.1.2.3.4 phases=4 Linecode=LC7 Length=0.12256 Units=m
New Line.LINE_1_161 Bus1=1_155.1.2.3.4 Bus2=1_162.1.2.3.4 phases=4 Linecode=LC1 Length=11.7422 Units=m
New Line.LINE_1_162 Bus1=1_155.1.2.3.4 Bus2=1_163.1.2.3.4 phases=4 Linecode=LC8 Length=5.2844 Units=m
New Line.LINE_1_163 Bus1=1_156.1.2.3.4 Bus2=1_164.1.2.3.4 phases=4 Linecode=LC6 Length=0.20342 Units=m
New Line.LINE_1_164 Bus1=1_157.1.2.3.4 Bus2=1_165.1.2.3.4 phases=4 Linecode=LC1 Length=0.47178 Units=m
New Line.LINE_1_165 Bus1=1_158.1.2.3.4 Bus2=1_166.1.2.3.4 phases=4 Linecode=LC8 Length=3.2899 Units=m
New Line.LINE_1_166 Bus1=1_159.1.2.3.4 Bus2=1_167.1.2.3.4 phases=4 Linecode=LC1 Length=0.28533 Units=m
New Line.LINE_1_167 Bus1=1_160.1.2.3.4 Bus2=1_168.1.2.3.4 phases=4 Linecode=LC4 Length=1.7861 Units=m
New Line.LINE_1_168 Bus1=1_161.1.2.3.4 Bus2=1_169.1.2.3.4 phases=4 Linecode=LC7 Length=0.24958 Units=m
New Line.LINE_1_169 Bus1=1_162.1.2.3.4 Bus2=1_170.1.2.3.4 phases=4 Linecode=LC1 Length=2.2183 Units=m
New Line.LINE_1_170 Bus1=1_163.1.2.3.4 Bus2=1_171.1.2.3.4 phases=4 Linecode=LC8 Length=7.0156 Units=m
New Line.LINE_1_171 Bus1=1_164.1.2.3.4 Bus2=1_172.1.2.3.4 phases=4 Linecode=LC6 Length=0.1727 Units=m
New Line.LINE_1_172 Bus1=1_165.1.2.3.4 Bus2=1_173.1.2.3.4 phases=4 Linecode=LC1 Length=0.35642 Units=m
New Line.LINE_1_173 Bus1=1_166.1.2.3.4 Bus2=1_174.1.2.3.4 phases=4 Linecode=LC8 Length=3.9183 Units=m
New Line.LINE_1_174 Bus1=1_166.1.2.3.4 Bus2=1_175.1.2.3.4 phases=4 Linecode=LC1 Length=4.2045 Units=m
New Line.LINE_1_175 Bus1=1_167.1.2.3.4 Bus2=1_176.1.2.3.4 phases=4 Linecode=LC1 Length=0.11853 Units=m
New Line.LINE_1_176 Bus1=1_168.1.2.3.4 Bus2=1_177.1.2.3.4 phases=4 Linecode=LC4 Length=1.0088 Units=m
New Line.LINE_1_177 Bus1=1_170.1.2.3.4 Bus2=1_178.1.2.3.4 phases=4 Linecode=LC1 Length=4.5768 Units=m
New Line.LINE_1_178 Bus1=1_171.1.2.3.4 Bus2=1_179.1.2.3.4 phases=4 Linecode=LC8 Length=1.1818 Units=m
New Line.LINE_1_179 Bus1=1_171.1.2.3.4 Bus2=1_180.1.2.3.4 phases=4 Linecode=LC1 Length=2.4224 Units=m
New Line.LINE_1_180 Bus1=1_172.1.2.3.4 Bus2=1_181.1.2.3.4 phases=4 Linecode=LC6 Length=0.17961 Units=m
New Line.LINE_1_181 Bus1=1_173.1.2.3.4 Bus2=1_182.1.2.3.4 phases=4 Linecode=LC1 Length=0.41244 Units=m
New Line.LINE_1_182 Bus1=1_174.1.2.3.4 Bus2=1_183.1.2.3.4 phases=4 Linecode=LC8 Length=0.58763 Units=m
New Line.LINE_1_183 Bus1=1_175.1.2.3.4 Bus2=1_184.1.2.3.4 phases=4 Linecode=LC1 Length=0.45409 Units=m
New Line.LINE_1_184 Bus1=1_176.1.2.3.4 Bus2=1_185.1.2.3.4 phases=4 Linecode=LC1 Length=0.25549 Units=m
New Line.LINE_1_185 Bus1=1_177.1.2.3.4 Bus2=1_186.1.2.3.4 phases=4 Linecode=LC4 Length=0.74886 Units=m
New Line.LINE_1_186 Bus1=1_179.1.2.3.4 Bus2=1_187.1.2.3.4 phases=4 Linecode=LC8 Length=4.6507 Units=m
New Line.LINE_1_187 Bus1=1_180.1.2.3.4 Bus2=1_188.1.2.3.4 phases=4 Linecode=LC1 Length=10.0258 Units=m
New Line.LINE_1_188 Bus1=1_181.1.2.3.4 Bus2=1_189.1.2.3.4 phases=4 Linecode=LC6 Length=0.15412 Units=m
New Line.LINE_1_189 Bus1=1_182.1.2.3.4 Bus2=1_190.1.2.3.4 phases=4 Linecode=LC1 Length=0.3878 Units=m
New Line.LINE_1_190 Bus1=1_183.1.2.3.4 Bus2=1_191.1.2.3.4 phases=4 Linecode=LC8 Length=2.3151 Units=m
New Line.LINE_1_191 Bus1=1_183.1.2.3.4 Bus2=1_192.1.2.3.4 phases=4 Linecode=LC8 Length=0.27791 Units=m
New Line.LINE_1_192 Bus1=1_184.1.2.3.4 Bus2=1_193.1.2.3.4 phases=4 Linecode=LC1 Length=0.43923 Units=m
New Line.LINE_1_193 Bus1=1_185.1.2.3.4 Bus2=1_194.1.2.3.4 phases=4 Linecode=LC1 Length=0.65073 Units=m
New Line.LINE_1_194 Bus1=1_186.1.2.3.4 Bus2=1_195.1.2.3.4 phases=4 Linecode=LC4 Length=0.67326 Units=m
New Line.LINE_1_195 Bus1=1_187.1.2.3.4 Bus2=1_196.1.2.3.4 phases=4 Linecode=LC8 Length=8.3036 Units=m
New Line.LINE_1_196 Bus1=1_188.1.2.3.4 Bus2=1_197.1.2.3.4 phases=4 Linecode=LC1 Length=1.9595 Units=m
New Line.LINE_1_197 Bus1=1_188.1.2.3.4 Bus2=1_198.1.2.3.4 phases=4 Linecode=LC1 Length=1.1325 Units=m
New Line.LINE_1_198 Bus1=1_189.1.2.3.4 Bus2=1_199.1.2.3.4 phases=4 Linecode=LC6 Length=0.19148 Units=m
New Line.LINE_1_199 Bus1=1_190.1.2.3.4 Bus2=1_200.1.2.3.4 phases=4 Linecode=LC1 Length=0.41725 Units=m
...
! ----------------------------------------------------------------------------------------------