data/feeder_12/Lines_2.txt
! Imported from Lines.txt, with modified linecodes
! ----------------------------------------------------------------------------------------------
New Line.LINE_2_0 Bus1=2_sourcebus.1.2.3.4 Bus2=2_1.1.2.3.4 phases=4 Linecode=LC3 Length=1 Units=m
New Line.LINE_2_1 Bus1=2_1.1.2.3.4 Bus2=2_2.1.2.3.4 phases=4 Linecode=LC3 Length=1.2678 Units=m
New Line.LINE_2_2 Bus1=2_2.1.2.3.4 Bus2=2_3.1.2.3.4 phases=4 Linecode=LC3 Length=0.14701 Units=m
New Line.LINE_2_3 Bus1=2_3.1.2.3.4 Bus2=2_4.1.2.3.4 phases=4 Linecode=LC3 Length=0.11539 Units=m
New Line.LINE_2_4 Bus1=2_4.1.2.3.4 Bus2=2_5.1.2.3.4 phases=4 Linecode=LC3 Length=0.091935 Units=m
New Line.LINE_2_5 Bus1=2_5.1.2.3.4 Bus2=2_6.1.2.3.4 phases=4 Linecode=LC3 Length=0.10826 Units=m
New Line.LINE_2_6 Bus1=2_6.1.2.3.4 Bus2=2_7.1.2.3.4 phases=4 Linecode=LC3 Length=10.9021 Units=m
New Line.LINE_2_7 Bus1=2_7.1.2.3.4 Bus2=2_8.1.2.3.4 phases=4 Linecode=LC3 Length=0.40028 Units=m
New Line.LINE_2_8 Bus1=2_8.1.2.3.4 Bus2=2_9.1.2.3.4 phases=4 Linecode=LC3 Length=0.298 Units=m
New Line.LINE_2_9 Bus1=2_9.1.2.3.4 Bus2=2_10.1.2.3.4 phases=4 Linecode=LC3 Length=0.37317 Units=m
New Line.LINE_2_10 Bus1=2_10.1.2.3.4 Bus2=2_11.1.2.3.4 phases=4 Linecode=LC3 Length=0.39461 Units=m
New Line.LINE_2_11 Bus1=2_11.1.2.3.4 Bus2=2_12.1.2.3.4 phases=4 Linecode=LC3 Length=0.35891 Units=m
New Line.LINE_2_12 Bus1=2_12.1.2.3.4 Bus2=2_13.1.2.3.4 phases=4 Linecode=LC3 Length=0.43804 Units=m
New Line.LINE_2_13 Bus1=2_13.1.2.3.4 Bus2=2_14.1.2.3.4 phases=4 Linecode=LC3 Length=7.3529 Units=m
New Line.LINE_2_14 Bus1=2_14.1.2.3.4 Bus2=2_15.1.2.3.4 phases=4 Linecode=LC3 Length=11.2962 Units=m
New Line.LINE_2_15 Bus1=2_15.1.2.3.4 Bus2=2_16.1.2.3.4 phases=4 Linecode=LC3 Length=3.6224 Units=m
New Line.LINE_2_16 Bus1=2_16.1.2.3.4 Bus2=2_17.1.2.3.4 phases=4 Linecode=LC3 Length=0.31933 Units=m
New Line.LINE_2_17 Bus1=2_16.1.2.3.4 Bus2=2_18.1.2.3.4 phases=4 Linecode=LC3 Length=3.9213 Units=m
New Line.LINE_2_18 Bus1=2_17.1.2.3.4 Bus2=2_19.1.2.3.4 phases=4 Linecode=LC3 Length=0.09014 Units=m
New Line.LINE_2_19 Bus1=2_18.1.2.3.4 Bus2=2_20.1.2.3.4 phases=4 Linecode=LC3 Length=6.5359 Units=m
New Line.LINE_2_20 Bus1=2_19.1.2.3.4 Bus2=2_21.1.2.3.4 phases=4 Linecode=LC3 Length=0.095854 Units=m
New Line.LINE_2_21 Bus1=2_20.1.2.3.4 Bus2=2_22.1.2.3.4 phases=4 Linecode=LC3 Length=0.10668 Units=m
New Line.LINE_2_22 Bus1=2_21.1.2.3.4 Bus2=2_23.1.2.3.4 phases=4 Linecode=LC3 Length=0.076118 Units=m
New Line.LINE_2_23 Bus1=2_22.1.2.3.4 Bus2=2_24.1.2.3.4 phases=4 Linecode=LC3 Length=0.201 Units=m
New Line.LINE_2_24 Bus1=2_23.1.2.3.4 Bus2=2_25.1.2.3.4 phases=4 Linecode=LC3 Length=0.138 Units=m
New Line.LINE_2_25 Bus1=2_24.1.2.3.4 Bus2=2_26.1.2.3.4 phases=4 Linecode=LC3 Length=0.15048 Units=m
New Line.LINE_2_26 Bus1=2_25.1.2.3.4 Bus2=2_27.1.2.3.4 phases=4 Linecode=LC3 Length=0.29149 Units=m
New Line.LINE_2_27 Bus1=2_26.1.2.3.4 Bus2=2_28.1.2.3.4 phases=4 Linecode=LC3 Length=0.18296 Units=m
New Line.LINE_2_28 Bus1=2_27.1.2.3.4 Bus2=2_29.1.2.3.4 phases=4 Linecode=LC3 Length=5.9092 Units=m
New Line.LINE_2_29 Bus1=2_28.1.2.3.4 Bus2=2_30.1.2.3.4 phases=4 Linecode=LC3 Length=0.22495 Units=m
New Line.LINE_2_30 Bus1=2_29.1.2.3.4 Bus2=2_31.1.2.3.4 phases=4 Linecode=LC3 Length=0.615 Units=m
New Line.LINE_2_31 Bus1=2_30.1.2.3.4 Bus2=2_32.1.2.3.4 phases=4 Linecode=LC3 Length=0.18524 Units=m
New Line.LINE_2_32 Bus1=2_32.1.2.3.4 Bus2=2_33.1.2.3.4 phases=4 Linecode=LC3 Length=0.30245 Units=m
New Line.LINE_2_33 Bus1=2_33.1.2.3.4 Bus2=2_34.1.2.3.4 phases=4 Linecode=LC3 Length=0.27631 Units=m
New Line.LINE_2_34 Bus1=2_34.1.2.3.4 Bus2=2_35.1.2.3.4 phases=4 Linecode=LC3 Length=0.29119 Units=m
New Line.LINE_2_35 Bus1=2_35.1.2.3.4 Bus2=2_36.1.2.3.4 phases=4 Linecode=LC3 Length=0.068154 Units=m
New Line.LINE_2_36 Bus1=2_36.1.2.3.4 Bus2=2_37.1.2.3.4 phases=4 Linecode=LC3 Length=0.16313 Units=m
New Line.LINE_2_37 Bus1=2_37.1.2.3.4 Bus2=2_38.1.2.3.4 phases=4 Linecode=LC3 Length=0.39768 Units=m
New Line.LINE_2_38 Bus1=2_38.1.2.3.4 Bus2=2_39.1.2.3.4 phases=4 Linecode=LC3 Length=7.942 Units=m
New Line.LINE_2_39 Bus1=2_39.1.2.3.4 Bus2=2_40.1.2.3.4 phases=4 Linecode=LC3 Length=1.8421 Units=m
New Line.LINE_2_40 Bus1=2_40.1.2.3.4 Bus2=2_41.1.2.3.4 phases=4 Linecode=LC3 Length=0.52269 Units=m
New Line.LINE_2_41 Bus1=2_40.1.2.3.4 Bus2=2_42.1.2.3.4 phases=4 Linecode=LC3 Length=2.3487 Units=m
New Line.LINE_2_42 Bus1=2_42.1.2.3.4 Bus2=2_43.1.2.3.4 phases=4 Linecode=LC3 Length=0.45549 Units=m
New Line.LINE_2_43 Bus1=2_43.1.2.3.4 Bus2=2_44.1.2.3.4 phases=4 Linecode=LC3 Length=0.38293 Units=m
New Line.LINE_2_44 Bus1=2_44.1.2.3.4 Bus2=2_45.1.2.3.4 phases=4 Linecode=LC3 Length=0.42216 Units=m
New Line.LINE_2_45 Bus1=2_45.1.2.3.4 Bus2=2_46.1.2.3.4 phases=4 Linecode=LC3 Length=0.48601 Units=m
New Line.LINE_2_46 Bus1=2_46.1.2.3.4 Bus2=2_47.1.2.3.4 phases=4 Linecode=LC3 Length=0.7176 Units=m
New Line.LINE_2_47 Bus1=2_47.1.2.3.4 Bus2=2_48.1.2.3.4 phases=4 Linecode=LC3 Length=0.54623 Units=m
New Line.LINE_2_48 Bus1=2_48.1.2.3.4 Bus2=2_49.1.2.3.4 phases=4 Linecode=LC3 Length=0.47164 Units=m
New Line.LINE_2_49 Bus1=2_49.1.2.3.4 Bus2=2_50.1.2.3.4 phases=4 Linecode=LC3 Length=0.30936 Units=m
New Line.LINE_2_50 Bus1=2_50.1.2.3.4 Bus2=2_51.1.2.3.4 phases=4 Linecode=LC3 Length=0.3128 Units=m
New Line.LINE_2_51 Bus1=2_51.1.2.3.4 Bus2=2_52.1.2.3.4 phases=4 Linecode=LC3 Length=0.35569 Units=m
New Line.LINE_2_52 Bus1=2_52.1.2.3.4 Bus2=2_53.1.2.3.4 phases=4 Linecode=LC3 Length=0.65323 Units=m
New Line.LINE_2_53 Bus1=2_53.1.2.3.4 Bus2=2_54.1.2.3.4 phases=4 Linecode=LC3 Length=5.6025 Units=m
New Line.LINE_2_54 Bus1=2_54.1.2.3.4 Bus2=2_55.1.2.3.4 phases=4 Linecode=LC3 Length=0.16388 Units=m
New Line.LINE_2_55 Bus1=2_55.1.2.3.4 Bus2=2_56.1.2.3.4 phases=4 Linecode=LC3 Length=0.22588 Units=m
New Line.LINE_2_56 Bus1=2_56.1.2.3.4 Bus2=2_57.1.2.3.4 phases=4 Linecode=LC3 Length=0.23492 Units=m
New Line.LINE_2_57 Bus1=2_57.1.2.3.4 Bus2=2_58.1.2.3.4 phases=4 Linecode=LC3 Length=0.19624 Units=m
New Line.LINE_2_58 Bus1=2_58.1.2.3.4 Bus2=2_59.1.2.3.4 phases=4 Linecode=LC3 Length=0.28481 Units=m
New Line.LINE_2_59 Bus1=2_59.1.2.3.4 Bus2=2_60.1.2.3.4 phases=4 Linecode=LC3 Length=0.30895 Units=m
New Line.LINE_2_60 Bus1=2_60.1.2.3.4 Bus2=2_61.1.2.3.4 phases=4 Linecode=LC3 Length=0.34812 Units=m
New Line.LINE_2_61 Bus1=2_61.1.2.3.4 Bus2=2_62.1.2.3.4 phases=4 Linecode=LC3 Length=0.3491 Units=m
New Line.LINE_2_62 Bus1=2_62.1.2.3.4 Bus2=2_63.1.2.3.4 phases=4 Linecode=LC3 Length=0.24452 Units=m
New Line.LINE_2_63 Bus1=2_63.1.2.3.4 Bus2=2_64.1.2.3.4 phases=4 Linecode=LC3 Length=0.326 Units=m
New Line.LINE_2_64 Bus1=2_64.1.2.3.4 Bus2=2_65.1.2.3.4 phases=4 Linecode=LC3 Length=0.601 Units=m
New Line.LINE_2_65 Bus1=2_65.1.2.3.4 Bus2=2_66.1.2.3.4 phases=4 Linecode=LC8 Length=0.47332 Units=m
New Line.LINE_2_66 Bus1=2_65.1.2.3.4 Bus2=2_67.1.2.3.4 phases=4 Linecode=LC4 Length=4.28 Units=m
New Line.LINE_2_67 Bus1=2_66.1.2.3.4 Bus2=2_68.1.2.3.4 phases=4 Linecode=LC8 Length=0.72048 Units=m
New Line.LINE_2_68 Bus1=2_67.1.2.3.4 Bus2=2_69.1.2.3.4 phases=4 Linecode=LC4 Length=0.642 Units=m
New Line.LINE_2_69 Bus1=2_67.1.2.3.4 Bus2=2_70.1.2.3.4 phases=4 Linecode=LC4 Length=5.9972 Units=m
New Line.LINE_2_70 Bus1=2_68.1.2.3.4 Bus2=2_71.1.2.3.4 phases=4 Linecode=LC8 Length=1.0686 Units=m
New Line.LINE_2_71 Bus1=2_70.1.2.3.4 Bus2=2_72.1.2.3.4 phases=4 Linecode=LC4 Length=0.68171 Units=m
New Line.LINE_2_72 Bus1=2_70.1.2.3.4 Bus2=2_73.1.2.3.4 phases=4 Linecode=LC4 Length=2.604 Units=m
New Line.LINE_2_73 Bus1=2_71.1.2.3.4 Bus2=2_74.1.2.3.4 phases=4 Linecode=LC8 Length=0.85425 Units=m
New Line.LINE_2_74 Bus1=2_73.1.2.3.4 Bus2=2_75.1.2.3.4 phases=4 Linecode=LC4 Length=0.64295 Units=m
New Line.LINE_2_75 Bus1=2_73.1.2.3.4 Bus2=2_76.1.2.3.4 phases=4 Linecode=LC4 Length=6.4225 Units=m
New Line.LINE_2_76 Bus1=2_74.1.2.3.4 Bus2=2_77.1.2.3.4 phases=4 Linecode=LC8 Length=0.79964 Units=m
New Line.LINE_2_77 Bus1=2_76.1.2.3.4 Bus2=2_78.1.2.3.4 phases=4 Linecode=LC4 Length=0.61537 Units=m
New Line.LINE_2_78 Bus1=2_76.1.2.3.4 Bus2=2_79.1.2.3.4 phases=4 Linecode=LC4 Length=0.71391 Units=m
New Line.LINE_2_79 Bus1=2_77.1.2.3.4 Bus2=2_80.1.2.3.4 phases=4 Linecode=LC8 Length=0.56945 Units=m
New Line.LINE_2_80 Bus1=2_79.1.2.3.4 Bus2=2_81.1.2.3.4 phases=4 Linecode=LC4 Length=0.57213 Units=m
New Line.LINE_2_81 Bus1=2_79.1.2.3.4 Bus2=2_82.1.2.3.4 phases=4 Linecode=LC4 Length=4.0611 Units=m
New Line.LINE_2_82 Bus1=2_80.1.2.3.4 Bus2=2_83.1.2.3.4 phases=4 Linecode=LC8 Length=0.4081 Units=m
New Line.LINE_2_83 Bus1=2_82.1.2.3.4 Bus2=2_84.1.2.3.4 phases=4 Linecode=LC4 Length=0.40328 Units=m
New Line.LINE_2_84 Bus1=2_83.1.2.3.4 Bus2=2_85.1.2.3.4 phases=4 Linecode=LC8 Length=0.391 Units=m
New Line.LINE_2_85 Bus1=2_84.1.2.3.4 Bus2=2_86.1.2.3.4 phases=4 Linecode=LC4 Length=1.0115 Units=m
New Line.LINE_2_86 Bus1=2_85.1.2.3.4 Bus2=2_87.1.2.3.4 phases=4 Linecode=LC8 Length=0.36271 Units=m
New Line.LINE_2_87 Bus1=2_86.1.2.3.4 Bus2=2_88.1.2.3.4 phases=4 Linecode=LC4 Length=0.575 Units=m
New Line.LINE_2_88 Bus1=2_86.1.2.3.4 Bus2=2_89.1.2.3.4 phases=4 Linecode=LC4 Length=4.9754 Units=m
New Line.LINE_2_89 Bus1=2_87.1.2.3.4 Bus2=2_90.1.2.3.4 phases=4 Linecode=LC8 Length=0.9651 Units=m
New Line.LINE_2_90 Bus1=2_89.1.2.3.4 Bus2=2_91.1.2.3.4 phases=4 Linecode=LC4 Length=0.60701 Units=m
New Line.LINE_2_91 Bus1=2_89.1.2.3.4 Bus2=2_92.1.2.3.4 phases=4 Linecode=LC4 Length=4.2035 Units=m
New Line.LINE_2_92 Bus1=2_90.1.2.3.4 Bus2=2_93.1.2.3.4 phases=4 Linecode=LC8 Length=0.24449 Units=m
New Line.LINE_2_93 Bus1=2_90.1.2.3.4 Bus2=2_94.1.2.3.4 phases=4 Linecode=LC8 Length=1.0592 Units=m
New Line.LINE_2_94 Bus1=2_92.1.2.3.4 Bus2=2_95.1.2.3.4 phases=4 Linecode=LC4 Length=0.56542 Units=m
New Line.LINE_2_95 Bus1=2_92.1.2.3.4 Bus2=2_96.1.2.3.4 phases=4 Linecode=LC4 Length=5.4418 Units=m
New Line.LINE_2_96 Bus1=2_93.1.2.3.4 Bus2=2_97.1.2.3.4 phases=4 Linecode=LC8 Length=0.22561 Units=m
New Line.LINE_2_97 Bus1=2_94.1.2.3.4 Bus2=2_98.1.2.3.4 phases=4 Linecode=LC8 Length=5.4917 Units=m
New Line.LINE_2_98 Bus1=2_96.1.2.3.4 Bus2=2_99.1.2.3.4 phases=4 Linecode=LC4 Length=0.534 Units=m
New Line.LINE_2_99 Bus1=2_96.1.2.3.4 Bus2=2_100.1.2.3.4 phases=4 Linecode=LC4 Length=2.4912 Units=m
New Line.LINE_2_100 Bus1=2_97.1.2.3.4 Bus2=2_101.1.2.3.4 phases=4 Linecode=LC8 Length=0.138 Units=m
New Line.LINE_2_101 Bus1=2_98.1.2.3.4 Bus2=2_102.1.2.3.4 phases=4 Linecode=LC8 Length=0.97602 Units=m
New Line.LINE_2_102 Bus1=2_98.1.2.3.4 Bus2=2_103.1.2.3.4 phases=4 Linecode=LC8 Length=3.9741 Units=m
New Line.LINE_2_103 Bus1=2_100.1.2.3.4 Bus2=2_104.1.2.3.4 phases=4 Linecode=LC4 Length=3.9957 Units=m
New Line.LINE_2_104 Bus1=2_100.1.2.3.4 Bus2=2_105.1.2.3.4 phases=4 Linecode=LC3 Length=0.12802 Units=m
New Line.LINE_2_105 Bus1=2_101.1.2.3.4 Bus2=2_106.1.2.3.4 phases=4 Linecode=LC8 Length=0.16744 Units=m
New Line.LINE_2_106 Bus1=2_102.1.2.3.4 Bus2=2_107.1.2.3.4 phases=4 Linecode=LC8 Length=0.22539 Units=m
New Line.LINE_2_107 Bus1=2_103.1.2.3.4 Bus2=2_108.1.2.3.4 phases=4 Linecode=LC2 Length=1.4417 Units=m
New Line.LINE_2_108 Bus1=2_103.1.2.3.4 Bus2=2_109.1.2.3.4 phases=4 Linecode=LC8 Length=6.2021 Units=m
New Line.LINE_2_109 Bus1=2_104.1.2.3.4 Bus2=2_110.1.2.3.4 phases=4 Linecode=LC4 Length=6.2731 Units=m
New Line.LINE_2_110 Bus1=2_105.1.2.3.4 Bus2=2_111.1.2.3.4 phases=4 Linecode=LC3 Length=0.14339 Units=m
New Line.LINE_2_111 Bus1=2_106.1.2.3.4 Bus2=2_112.1.2.3.4 phases=4 Linecode=LC8 Length=0.115 Units=m
New Line.LINE_2_112 Bus1=2_107.1.2.3.4 Bus2=2_113.1.2.3.4 phases=4 Linecode=LC8 Length=0.20822 Units=m
New Line.LINE_2_113 Bus1=2_108.1.2.3.4 Bus2=2_114.1.2.3.4 phases=4 Linecode=LC2 Length=0.11424 Units=m
New Line.LINE_2_114 Bus1=2_109.1.2.3.4 Bus2=2_115.1.2.3.4 phases=4 Linecode=LC1 Length=18.6333 Units=m
New Line.LINE_2_115 Bus1=2_109.1.2.3.4 Bus2=2_116.1.2.3.4 phases=4 Linecode=LC8 Length=3.71 Units=m
New Line.LINE_2_116 Bus1=2_110.1.2.3.4 Bus2=2_117.1.2.3.4 phases=4 Linecode=LC4 Length=6.8138 Units=m
New Line.LINE_2_117 Bus1=2_111.1.2.3.4 Bus2=2_118.1.2.3.4 phases=4 Linecode=LC3 Length=0.1651 Units=m
New Line.LINE_2_118 Bus1=2_112.1.2.3.4 Bus2=2_119.1.2.3.4 phases=4 Linecode=LC8 Length=0.16744 Units=m
New Line.LINE_2_119 Bus1=2_113.1.2.3.4 Bus2=2_120.1.2.3.4 phases=4 Linecode=LC8 Length=0.19026 Units=m
New Line.LINE_2_120 Bus1=2_114.1.2.3.4 Bus2=2_121.1.2.3.4 phases=4 Linecode=LC2 Length=0.11322 Units=m
New Line.LINE_2_121 Bus1=2_116.1.2.3.4 Bus2=2_122.1.2.3.4 phases=4 Linecode=LC8 Length=3.578 Units=m
New Line.LINE_2_122 Bus1=2_117.1.2.3.4 Bus2=2_123.1.2.3.4 phases=4 Linecode=LC4 Length=0.24502 Units=m
New Line.LINE_2_123 Bus1=2_118.1.2.3.4 Bus2=2_124.1.2.3.4 phases=4 Linecode=LC3 Length=0.18768 Units=m
New Line.LINE_2_124 Bus1=2_119.1.2.3.4 Bus2=2_125.1.2.3.4 phases=4 Linecode=LC8 Length=0.57446 Units=m
New Line.LINE_2_125 Bus1=2_120.1.2.3.4 Bus2=2_126.1.2.3.4 phases=4 Linecode=LC8 Length=0.16323 Units=m
New Line.LINE_2_126 Bus1=2_121.1.2.3.4 Bus2=2_127.1.2.3.4 phases=4 Linecode=LC2 Length=0.11428 Units=m
New Line.LINE_2_127 Bus1=2_122.1.2.3.4 Bus2=2_128.1.2.3.4 phases=4 Linecode=LC8 Length=2.0533 Units=m
New Line.LINE_2_128 Bus1=2_123.1.2.3.4 Bus2=2_129.1.2.3.4 phases=4 Linecode=LC4 Length=0.19025 Units=m
New Line.LINE_2_129 Bus1=2_124.1.2.3.4 Bus2=2_130.1.2.3.4 phases=4 Linecode=LC3 Length=0.18768 Units=m
New Line.LINE_2_130 Bus1=2_126.1.2.3.4 Bus2=2_131.1.2.3.4 phases=4 Linecode=LC8 Length=0.24887 Units=m
New Line.LINE_2_131 Bus1=2_127.1.2.3.4 Bus2=2_132.1.2.3.4 phases=4 Linecode=LC2 Length=0.11385 Units=m
New Line.LINE_2_132 Bus1=2_128.1.2.3.4 Bus2=2_133.1.2.3.4 phases=4 Linecode=LC8 Length=2.2731 Units=m
New Line.LINE_2_133 Bus1=2_129.1.2.3.4 Bus2=2_134.1.2.3.4 phases=4 Linecode=LC4 Length=0.12572 Units=m
New Line.LINE_2_134 Bus1=2_130.1.2.3.4 Bus2=2_135.1.2.3.4 phases=4 Linecode=LC3 Length=0.16026 Units=m
New Line.LINE_2_135 Bus1=2_131.1.2.3.4 Bus2=2_136.1.2.3.4 phases=4 Linecode=LC8 Length=0.71943 Units=m
New Line.LINE_2_136 Bus1=2_132.1.2.3.4 Bus2=2_137.1.2.3.4 phases=4 Linecode=LC2 Length=0.11455 Units=m
New Line.LINE_2_137 Bus1=2_133.1.2.3.4 Bus2=2_138.1.2.3.4 phases=4 Linecode=LC8 Length=7.6821 Units=m
New Line.LINE_2_138 Bus1=2_134.1.2.3.4 Bus2=2_139.1.2.3.4 phases=4 Linecode=LC4 Length=0.17913 Units=m
New Line.LINE_2_139 Bus1=2_135.1.2.3.4 Bus2=2_140.1.2.3.4 phases=4 Linecode=LC3 Length=0.098858 Units=m
New Line.LINE_2_140 Bus1=2_137.1.2.3.4 Bus2=2_141.1.2.3.4 phases=4 Linecode=LC2 Length=0.11332 Units=m
New Line.LINE_2_141 Bus1=2_138.1.2.3.4 Bus2=2_142.1.2.3.4 phases=4 Linecode=LC8 Length=1.5452 Units=m
New Line.LINE_2_142 Bus1=2_139.1.2.3.4 Bus2=2_143.1.2.3.4 phases=4 Linecode=LC4 Length=0.32023 Units=m
New Line.LINE_2_143 Bus1=2_140.1.2.3.4 Bus2=2_144.1.2.3.4 phases=4 Linecode=LC3 Length=0.10465 Units=m
New Line.LINE_2_144 Bus1=2_141.1.2.3.4 Bus2=2_145.1.2.3.4 phases=4 Linecode=LC2 Length=0.11378 Units=m
New Line.LINE_2_145 Bus1=2_142.1.2.3.4 Bus2=2_146.1.2.3.4 phases=4 Linecode=LC8 Length=0.32006 Units=m
New Line.LINE_2_146 Bus1=2_143.1.2.3.4 Bus2=2_147.1.2.3.4 phases=4 Linecode=LC3 Length=1.2044 Units=m
New Line.LINE_2_147 Bus1=2_143.1.2.3.4 Bus2=2_148.1.2.3.4 phases=4 Linecode=LC3 Length=0.25849 Units=m
New Line.LINE_2_148 Bus1=2_144.1.2.3.4 Bus2=2_149.1.2.3.4 phases=4 Linecode=LC3 Length=1.1303 Units=m
New Line.LINE_2_149 Bus1=2_145.1.2.3.4 Bus2=2_150.1.2.3.4 phases=4 Linecode=LC2 Length=0.11411 Units=m
New Line.LINE_2_150 Bus1=2_146.1.2.3.4 Bus2=2_151.1.2.3.4 phases=4 Linecode=LC8 Length=0.27351 Units=m
New Line.LINE_2_151 Bus1=2_147.1.2.3.4 Bus2=2_152.1.2.3.4 phases=4 Linecode=LC3 Length=0.9003 Units=m
New Line.LINE_2_152 Bus1=2_148.1.2.3.4 Bus2=2_153.1.2.3.4 phases=4 Linecode=LC3 Length=1.1967 Units=m
New Line.LINE_2_153 Bus1=2_149.1.2.3.4 Bus2=2_154.1.2.3.4 phases=4 Linecode=LC3 Length=5.0734 Units=m
New Line.LINE_2_154 Bus1=2_151.1.2.3.4 Bus2=2_155.1.2.3.4 phases=4 Linecode=LC8 Length=0.25111 Units=m
New Line.LINE_2_155 Bus1=2_152.1.2.3.4 Bus2=2_156.1.2.3.4 phases=4 Linecode=LC3 Length=1.0219 Units=m
New Line.LINE_2_156 Bus1=2_153.1.2.3.4 Bus2=2_157.1.2.3.4 phases=4 Linecode=LC3 Length=1.0863 Units=m
New Line.LINE_2_157 Bus1=2_154.1.2.3.4 Bus2=2_158.1.2.3.4 phases=4 Linecode=LC3 Length=0.35328 Units=m
New Line.LINE_2_158 Bus1=2_155.1.2.3.4 Bus2=2_159.1.2.3.4 phases=4 Linecode=LC8 Length=0.24535 Units=m
New Line.LINE_2_159 Bus1=2_156.1.2.3.4 Bus2=2_160.1.2.3.4 phases=4 Linecode=LC3 Length=0.816 Units=m
New Line.LINE_2_160 Bus1=2_157.1.2.3.4 Bus2=2_161.1.2.3.4 phases=4 Linecode=LC3 Length=2.8635 Units=m
New Line.LINE_2_161 Bus1=2_158.1.2.3.4 Bus2=2_162.1.2.3.4 phases=4 Linecode=LC3 Length=0.24444 Units=m
New Line.LINE_2_162 Bus1=2_159.1.2.3.4 Bus2=2_163.1.2.3.4 phases=4 Linecode=LC8 Length=0.32177 Units=m
New Line.LINE_2_163 Bus1=2_160.1.2.3.4 Bus2=2_164.1.2.3.4 phases=4 Linecode=LC3 Length=0.68062 Units=m
New Line.LINE_2_164 Bus1=2_161.1.2.3.4 Bus2=2_165.1.2.3.4 phases=4 Linecode=LC3 Length=6.5871 Units=m
New Line.LINE_2_165 Bus1=2_162.1.2.3.4 Bus2=2_166.1.2.3.4 phases=4 Linecode=LC3 Length=0.16586 Units=m
New Line.LINE_2_166 Bus1=2_163.1.2.3.4 Bus2=2_167.1.2.3.4 phases=4 Linecode=LC8 Length=0.39623 Units=m
New Line.LINE_2_167 Bus1=2_164.1.2.3.4 Bus2=2_168.1.2.3.4 phases=4 Linecode=LC3 Length=0.8392 Units=m
New Line.LINE_2_168 Bus1=2_165.1.2.3.4 Bus2=2_169.1.2.3.4 phases=4 Linecode=LC6 Length=7.3715 Units=m
New Line.LINE_2_169 Bus1=2_165.1.2.3.4 Bus2=2_170.1.2.3.4 phases=4 Linecode=LC3 Length=2.1281 Units=m
New Line.LINE_2_170 Bus1=2_166.1.2.3.4 Bus2=2_171.1.2.3.4 phases=4 Linecode=LC3 Length=0.3027 Units=m
New Line.LINE_2_171 Bus1=2_167.1.2.3.4 Bus2=2_172.1.2.3.4 phases=4 Linecode=LC8 Length=2.8593 Units=m
New Line.LINE_2_172 Bus1=2_168.1.2.3.4 Bus2=2_173.1.2.3.4 phases=4 Linecode=LC3 Length=0.90468 Units=m
New Line.LINE_2_173 Bus1=2_169.1.2.3.4 Bus2=2_174.1.2.3.4 phases=4 Linecode=LC6 Length=0.4837 Units=m
New Line.LINE_2_174 Bus1=2_170.1.2.3.4 Bus2=2_175.1.2.3.4 phases=4 Linecode=LC6 Length=7.2098 Units=m
New Line.LINE_2_175 Bus1=2_170.1.2.3.4 Bus2=2_176.1.2.3.4 phases=4 Linecode=LC3 Length=10.1945 Units=m
New Line.LINE_2_176 Bus1=2_171.1.2.3.4 Bus2=2_177.1.2.3.4 phases=4 Linecode=LC3 Length=0.41015 Units=m
New Line.LINE_2_177 Bus1=2_172.1.2.3.4 Bus2=2_178.1.2.3.4 phases=4 Linecode=LC8 Length=9.9495 Units=m
New Line.LINE_2_178 Bus1=2_173.1.2.3.4 Bus2=2_179.1.2.3.4 phases=4 Linecode=LC3 Length=0.57899 Units=m
New Line.LINE_2_179 Bus1=2_174.1.2.3.4 Bus2=2_180.1.2.3.4 phases=4 Linecode=LC6 Length=0.3844 Units=m
New Line.LINE_2_180 Bus1=2_175.1.2.3.4 Bus2=2_181.1.2.3.4 phases=4 Linecode=LC6 Length=7.5749 Units=m
New Line.LINE_2_181 Bus1=2_176.1.2.3.4 Bus2=2_182.1.2.3.4 phases=4 Linecode=LC6 Length=0.27554 Units=m
New Line.LINE_2_182 Bus1=2_176.1.2.3.4 Bus2=2_183.1.2.3.4 phases=4 Linecode=LC3 Length=3.0002 Units=m
New Line.LINE_2_183 Bus1=2_177.1.2.3.4 Bus2=2_184.1.2.3.4 phases=4 Linecode=LC3 Length=0.8107 Units=m
New Line.LINE_2_184 Bus1=2_178.1.2.3.4 Bus2=2_185.1.2.3.4 phases=4 Linecode=LC8 Length=13.337 Units=m
New Line.LINE_2_185 Bus1=2_179.1.2.3.4 Bus2=2_186.1.2.3.4 phases=4 Linecode=LC3 Length=6.995 Units=m
New Line.LINE_2_186 Bus1=2_180.1.2.3.4 Bus2=2_187.1.2.3.4 phases=4 Linecode=LC6 Length=0.19807 Units=m
New Line.LINE_2_187 Bus1=2_182.1.2.3.4 Bus2=2_188.1.2.3.4 phases=4 Linecode=LC6 Length=0.20951 Units=m
New Line.LINE_2_188 Bus1=2_183.1.2.3.4 Bus2=2_189.1.2.3.4 phases=4 Linecode=LC6 Length=7.4458 Units=m
New Line.LINE_2_189 Bus1=2_183.1.2.3.4 Bus2=2_190.1.2.3.4 phases=4 Linecode=LC3 Length=4.0245 Units=m
New Line.LINE_2_190 Bus1=2_184.1.2.3.4 Bus2=2_191.1.2.3.4 phases=4 Linecode=LC3 Length=1.4826 Units=m
New Line.LINE_2_191 Bus1=2_185.1.2.3.4 Bus2=2_192.1.2.3.4 phases=4 Linecode=LC8 Length=4.6277 Units=m
New Line.LINE_2_192 Bus1=2_186.1.2.3.4 Bus2=2_193.1.2.3.4 phases=4 Linecode=LC3 Length=1.6496 Units=m
New Line.LINE_2_193 Bus1=2_187.1.2.3.4 Bus2=2_194.1.2.3.4 phases=4 Linecode=LC6 Length=0.33179 Units=m
New Line.LINE_2_194 Bus1=2_188.1.2.3.4 Bus2=2_195.1.2.3.4 phases=4 Linecode=LC6 Length=0.19228 Units=m
New Line.LINE_2_195 Bus1=2_189.1.2.3.4 Bus2=2_196.1.2.3.4 phases=4 Linecode=LC6 Length=5.1426 Units=m
New Line.LINE_2_196 Bus1=2_190.1.2.3.4 Bus2=2_197.1.2.3.4 phases=4 Linecode=LC6 Length=7.7733 Units=m
New Line.LINE_2_197 Bus1=2_190.1.2.3.4 Bus2=2_198.1.2.3.4 phases=4 Linecode=LC3 Length=5.7798 Units=m
New Line.LINE_2_198 Bus1=2_191.1.2.3.4 Bus2=2_199.1.2.3.4 phases=4 Linecode=LC3 Length=1.6369 Units=m
New Line.LINE_2_199 Bus1=2_192.1.2.3.4 Bus2=2_200.1.2.3.4 phases=4 Linecode=LC8 Length=4.134 Units=m
New Line.LINE_2_200 Bus1=2_193.1.2.3.4 Bus2=2_201.1.2.3.4 phases=4 Linecode=LC3 Length=2.9151 Units=m
New Line.LINE_2_201 Bus1=2_194.1.2.3.4 Bus2=2_202.1.2.3.4 phases=4 Linecode=LC6 Length=0.33984 Units=m
New Line.LINE_2_202 Bus1=2_195.1.2.3.4 Bus2=2_203.1.2.3.4 phases=4 Linecode=LC6 Length=0.41155 Units=m
New Line.LINE_2_203 Bus1=2_197.1.2.3.4 Bus2=2_204.1.2.3.4 phases=4 Linecode=LC6 Length=0.57905 Units=m
New Line.LINE_2_204 Bus1=2_198.1.2.3.4 Bus2=2_205.1.2.3.4 phases=4 Linecode=LC3 Length=1.9267 Units=m
New Line.LINE_2_205 Bus1=2_199.1.2.3.4 Bus2=2_206.1.2.3.4 phases=4 Linecode=LC6 Length=0.49573 Units=m
New Line.LINE_2_206 Bus1=2_199.1.2.3.4 Bus2=2_207.1.2.3.4 phases=4 Linecode=LC3 Length=1.582 Units=m
New Line.LINE_2_207 Bus1=2_200.1.2.3.4 Bus2=2_208.1.2.3.4 phases=4 Linecode=LC8 Length=0.31369 Units=m
New Line.LINE_2_208 Bus1=2_201.1.2.3.4 Bus2=2_209.1.2.3.4 phases=4 Linecode=LC6 Length=7.8473 Units=m
New Line.LINE_2_209 Bus1=2_201.1.2.3.4 Bus2=2_210.1.2.3.4 phases=4 Linecode=LC3 Length=12.6298 Units=m
New Line.LINE_2_210 Bus1=2_202.1.2.3.4 Bus2=2_211.1.2.3.4 phases=4 Linecode=LC6 Length=1.7807 Units=m
New Line.LINE_2_211 Bus1=2_203.1.2.3.4 Bus2=2_212.1.2.3.4 phases=4 Linecode=LC6 Length=0.26446 Units=m
New Line.LINE_2_212 Bus1=2_204.1.2.3.4 Bus2=2_213.1.2.3.4 phases=4 Linecode=LC6 Length=0.23119 Units=m
New Line.LINE_2_213 Bus1=2_205.1.2.3.4 Bus2=2_214.1.2.3.4 phases=4 Linecode=LC3 Length=1.2534 Units=m
New Line.LINE_2_214 Bus1=2_206.1.2.3.4 Bus2=2_215.1.2.3.4 phases=4 Linecode=LC6 Length=0.26681 Units=m
New Line.LINE_2_215 Bus1=2_207.1.2.3.4 Bus2=2_216.1.2.3.4 phases=4 Linecode=LC6 Length=0.18928 Units=m
New Line.LINE_2_216 Bus1=2_207.1.2.3.4 Bus2=2_217.1.2.3.4 phases=4 Linecode=LC3 Length=1.9147 Units=m
New Line.LINE_2_217 Bus1=2_208.1.2.3.4 Bus2=2_218.1.2.3.4 phases=4 Linecode=LC8 Length=0.25139 Units=m
New Line.LINE_2_218 Bus1=2_209.1.2.3.4 Bus2=2_219.1.2.3.4 phases=4 Linecode=LC6 Length=5.133 Units=m
New Line.LINE_2_219 Bus1=2_210.1.2.3.4 Bus2=2_220.1.2.3.4 phases=4 Linecode=LC6 Length=7.7335 Units=m
New Line.LINE_2_220 Bus1=2_210.1.2.3.4 Bus2=2_221.1.2.3.4 phases=4 Linecode=LC3 Length=3.3509 Units=m
New Line.LINE_2_221 Bus1=2_211.1.2.3.4 Bus2=2_222.1.2.3.4 phases=4 Linecode=LC6 Length=5.1057 Units=m
New Line.LINE_2_222 Bus1=2_211.1.2.3.4 Bus2=2_223.1.2.3.4 phases=4 Linecode=LC6 Length=5.1057 Units=m
New Line.LINE_2_223 Bus1=2_212.1.2.3.4 Bus2=2_224.1.2.3.4 phases=4 Linecode=LC6 Length=0.21543 Units=m
New Line.LINE_2_224 Bus1=2_213.1.2.3.4 Bus2=2_225.1.2.3.4 phases=4 Linecode=LC6 Length=0.15902 Units=m
New Line.LINE_2_225 Bus1=2_214.1.2.3.4 Bus2=2_226.1.2.3.4 phases=4 Linecode=LC3 Length=1.4148 Units=m
New Line.LINE_2_226 Bus1=2_215.1.2.3.4 Bus2=2_227.1.2.3.4 phases=4 Linecode=LC6 Length=0.34979 Units=m
New Line.LINE_2_227 Bus1=2_216.1.2.3.4 Bus2=2_228.1.2.3.4 phases=4 Linecode=LC6 Length=0.2594 Units=m
New Line.LINE_2_228 Bus1=2_217.1.2.3.4 Bus2=2_229.1.2.3.4 phases=4 Linecode=LC6 Length=7.733 Units=m
New Line.LINE_2_229 Bus1=2_217.1.2.3.4 Bus2=2_230.1.2.3.4 phases=4 Linecode=LC3 Length=2.803 Units=m
New Line.LINE_2_230 Bus1=2_218.1.2.3.4 Bus2=2_231.1.2.3.4 phases=4 Linecode=LC8 Length=0.32995 Units=m
New Line.LINE_2_231 Bus1=2_220.1.2.3.4 Bus2=2_232.1.2.3.4 phases=4 Linecode=LC6 Length=4.1663 Units=m
New Line.LINE_2_232 Bus1=2_221.1.2.3.4 Bus2=2_233.1.2.3.4 phases=4 Linecode=LC3 Length=0.21513 Units=m
New Line.LINE_2_233 Bus1=2_221.1.2.3.4 Bus2=2_234.1.2.3.4 phases=4 Linecode=LC3 Length=3.6388 Units=m
New Line.LINE_2_234 Bus1=2_224.1.2.3.4 Bus2=2_235.1.2.3.4 phases=4 Linecode=LC6 Length=0.20951 Units=m
New Line.LINE_2_235 Bus1=2_225.1.2.3.4 Bus2=2_236.1.2.3.4 phases=4 Linecode=LC6 Length=0.19228 Units=m
New Line.LINE_2_236 Bus1=2_226.1.2.3.4 Bus2=2_237.1.2.3.4 phases=4 Linecode=LC3 Length=1.0463 Units=m
New Line.LINE_2_237 Bus1=2_227.1.2.3.4 Bus2=2_238.1.2.3.4 phases=4 Linecode=LC6 Length=6.1969 Units=m
New Line.LINE_2_238 Bus1=2_228.1.2.3.4 Bus2=2_239.1.2.3.4 phases=4 Linecode=LC6 Length=0.27049 Units=m
New Line.LINE_2_239 Bus1=2_229.1.2.3.4 Bus2=2_240.1.2.3.4 phases=4 Linecode=LC6 Length=5.2959 Units=m
New Line.LINE_2_240 Bus1=2_230.1.2.3.4 Bus2=2_241.1.2.3.4 phases=4 Linecode=LC3 Length=11.1833 Units=m
New Line.LINE_2_241 Bus1=2_231.1.2.3.4 Bus2=2_242.1.2.3.4 phases=4 Linecode=LC8 Length=0.29165 Units=m
New Line.LINE_2_242 Bus1=2_233.1.2.3.4 Bus2=2_243.1.2.3.4 phases=4 Linecode=LC3 Length=0.21836 Units=m
New Line.LINE_2_243 Bus1=2_234.1.2.3.4 Bus2=2_244.1.2.3.4 phases=4 Linecode=LC6 Length=2.4762 Units=m
New Line.LINE_2_244 Bus1=2_234.1.2.3.4 Bus2=2_245.1.2.3.4 phases=4 Linecode=LC3 Length=6.2937 Units=m
New Line.LINE_2_245 Bus1=2_235.1.2.3.4 Bus2=2_246.1.2.3.4 phases=4 Linecode=LC6 Length=0.32758 Units=m
New Line.LINE_2_246 Bus1=2_236.1.2.3.4 Bus2=2_247.1.2.3.4 phases=4 Linecode=LC6 Length=0.21197 Units=m
New Line.LINE_2_247 Bus1=2_237.1.2.3.4 Bus2=2_248.1.2.3.4 phases=4 Linecode=LC3 Length=0.73831 Units=m
New Line.LINE_2_248 Bus1=2_238.1.2.3.4 Bus2=2_249.1.2.3.4 phases=4 Linecode=LC6 Length=0.37136 Units=m
New Line.LINE_2_249 Bus1=2_239.1.2.3.4 Bus2=2_250.1.2.3.4 phases=4 Linecode=LC6 Length=0.26417 Units=m
New Line.LINE_2_250 Bus1=2_241.1.2.3.4 Bus2=2_251.1.2.3.4 phases=4 Linecode=LC6 Length=6.7186 Units=m
New Line.LINE_2_251 Bus1=2_241.1.2.3.4 Bus2=2_252.1.2.3.4 phases=4 Linecode=LC3 Length=4.2833 Units=m
New Line.LINE_2_252 Bus1=2_242.1.2.3.4 Bus2=2_253.1.2.3.4 phases=4 Linecode=LC8 Length=0.36513 Units=m
New Line.LINE_2_253 Bus1=2_243.1.2.3.4 Bus2=2_254.1.2.3.4 phases=4 Linecode=LC3 Length=0.29969 Units=m
New Line.LINE_2_254 Bus1=2_244.1.2.3.4 Bus2=2_255.1.2.3.4 phases=4 Linecode=LC6 Length=0.22672 Units=m
New Line.LINE_2_255 Bus1=2_246.1.2.3.4 Bus2=2_256.1.2.3.4 phases=4 Linecode=LC6 Length=1.3444 Units=m
New Line.LINE_2_256 Bus1=2_247.1.2.3.4 Bus2=2_257.1.2.3.4 phases=4 Linecode=LC6 Length=0.21197 Units=m
New Line.LINE_2_257 Bus1=2_248.1.2.3.4 Bus2=2_258.1.2.3.4 phases=4 Linecode=LC3 Length=1.0723 Units=m
New Line.LINE_2_258 Bus1=2_249.1.2.3.4 Bus2=2_259.1.2.3.4 phases=4 Linecode=LC6 Length=0.40266 Units=m
New Line.LINE_2_259 Bus1=2_250.1.2.3.4 Bus2=2_260.1.2.3.4 phases=4 Linecode=LC6 Length=0.1516 Units=m
New Line.LINE_2_260 Bus1=2_251.1.2.3.4 Bus2=2_261.1.2.3.4 phases=4 Linecode=LC6 Length=1.136 Units=m
New Line.LINE_2_261 Bus1=2_251.1.2.3.4 Bus2=2_262.1.2.3.4 phases=4 Linecode=LC6 Length=1.207 Units=m
New Line.LINE_2_262 Bus1=2_252.1.2.3.4 Bus2=2_263.1.2.3.4 phases=4 Linecode=LC3 Length=8.1431 Units=m
New Line.LINE_2_263 Bus1=2_253.1.2.3.4 Bus2=2_264.1.2.3.4 phases=4 Linecode=LC8 Length=0.43115 Units=m
New Line.LINE_2_264 Bus1=2_254.1.2.3.4 Bus2=2_265.1.2.3.4 phases=4 Linecode=LC3 Length=0.29955 Units=m
New Line.LINE_2_265 Bus1=2_255.1.2.3.4 Bus2=2_266.1.2.3.4 phases=4 Linecode=LC6 Length=0.32487 Units=m
New Line.LINE_2_266 Bus1=2_257.1.2.3.4 Bus2=2_267.1.2.3.4 phases=4 Linecode=LC6 Length=0.75412 Units=m
New Line.LINE_2_267 Bus1=2_258.1.2.3.4 Bus2=2_268.1.2.3.4 phases=4 Linecode=LC3 Length=0.78189 Units=m
New Line.LINE_2_268 Bus1=2_259.1.2.3.4 Bus2=2_269.1.2.3.4 phases=4 Linecode=LC6 Length=0.46672 Units=m
New Line.LINE_2_269 Bus1=2_260.1.2.3.4 Bus2=2_270.1.2.3.4 phases=4 Linecode=LC6 Length=0.24444 Units=m
New Line.LINE_2_270 Bus1=2_261.1.2.3.4 Bus2=2_271.1.2.3.4 phases=4 Linecode=LC6 Length=4.8291 Units=m
New Line.LINE_2_271 Bus1=2_262.1.2.3.4 Bus2=2_272.1.2.3.4 phases=4 Linecode=LC6 Length=0.29 Units=m
New Line.LINE_2_272 Bus1=2_263.1.2.3.4 Bus2=2_273.1.2.3.4 phases=4 Linecode=LC6 Length=8.2289 Units=m
New Line.LINE_2_273 Bus1=2_263.1.2.3.4 Bus2=2_274.1.2.3.4 phases=4 Linecode=LC3 Length=7.6317 Units=m
New Line.LINE_2_274 Bus1=2_264.1.2.3.4 Bus2=2_275.1.2.3.4 phases=4 Linecode=LC8 Length=0.63545 Units=m
New Line.LINE_2_275 Bus1=2_265.1.2.3.4 Bus2=2_276.1.2.3.4 phases=4 Linecode=LC3 Length=0.16085 Units=m
New Line.LINE_2_276 Bus1=2_266.1.2.3.4 Bus2=2_277.1.2.3.4 phases=4 Linecode=LC6 Length=0.40594 Units=m
New Line.LINE_2_277 Bus1=2_267.1.2.3.4 Bus2=2_278.1.2.3.4 phases=4 Linecode=LC6 Length=4.4991 Units=m
New Line.LINE_2_278 Bus1=2_267.1.2.3.4 Bus2=2_279.1.2.3.4 phases=4 Linecode=LC6 Length=4.4991 Units=m
New Line.LINE_2_279 Bus1=2_268.1.2.3.4 Bus2=2_280.1.2.3.4 phases=4 Linecode=LC3 Length=0.85234 Units=m
New Line.LINE_2_280 Bus1=2_269.1.2.3.4 Bus2=2_281.1.2.3.4 phases=4 Linecode=LC6 Length=2.4414 Units=m
New Line.LINE_2_281 Bus1=2_270.1.2.3.4 Bus2=2_282.1.2.3.4 phases=4 Linecode=LC6 Length=0.31208 Units=m
New Line.LINE_2_282 Bus1=2_272.1.2.3.4 Bus2=2_283.1.2.3.4 phases=4 Linecode=LC6 Length=0.29099 Units=m
New Line.LINE_2_283 Bus1=2_273.1.2.3.4 Bus2=2_284.1.2.3.4 phases=4 Linecode=LC6 Length=5.0187 Units=m
New Line.LINE_2_284 Bus1=2_274.1.2.3.4 Bus2=2_285.1.2.3.4 phases=4 Linecode=LC6 Length=9.7001 Units=m
New Line.LINE_2_285 Bus1=2_274.1.2.3.4 Bus2=2_286.1.2.3.4 phases=4 Linecode=LC3 Length=6.2438 Units=m
New Line.LINE_2_286 Bus1=2_275.1.2.3.4 Bus2=2_287.1.2.3.4 phases=4 Linecode=LC8 Length=0.5602 Units=m
New Line.LINE_2_287 Bus1=2_276.1.2.3.4 Bus2=2_288.1.2.3.4 phases=4 Linecode=LC3 Length=0.21946 Units=m
New Line.LINE_2_288 Bus1=2_277.1.2.3.4 Bus2=2_289.1.2.3.4 phases=4 Linecode=LC6 Length=1.2446 Units=m
New Line.LINE_2_289 Bus1=2_280.1.2.3.4 Bus2=2_290.1.2.3.4 phases=4 Linecode=LC3 Length=0.58992 Units=m
New Line.LINE_2_290 Bus1=2_281.1.2.3.4 Bus2=2_291.1.2.3.4 phases=4 Linecode=LC6 Length=0.28618 Units=m
New Line.LINE_2_291 Bus1=2_282.1.2.3.4 Bus2=2_292.1.2.3.4 phases=4 Linecode=LC6 Length=1.1696 Units=m
New Line.LINE_2_292 Bus1=2_283.1.2.3.4 Bus2=2_293.1.2.3.4 phases=4 Linecode=LC6 Length=0.14132 Units=m
New Line.LINE_2_293 Bus1=2_285.1.2.3.4 Bus2=2_294.1.2.3.4 phases=4 Linecode=LC6 Length=0.31421 Units=m
New Line.LINE_2_294 Bus1=2_286.1.2.3.4 Bus2=2_295.1.2.3.4 phases=4 Linecode=LC3 Length=5.0736 Units=m
New Line.LINE_2_295 Bus1=2_287.1.2.3.4 Bus2=2_296.1.2.3.4 phases=4 Linecode=LC8 Length=0.64896 Units=m
New Line.LINE_2_296 Bus1=2_288.1.2.3.4 Bus2=2_297.1.2.3.4 phases=4 Linecode=LC3 Length=0.32796 Units=m
New Line.LINE_2_297 Bus1=2_289.1.2.3.4 Bus2=2_298.1.2.3.4 phases=4 Linecode=LC6 Length=0.27461 Units=m
New Line.LINE_2_298 Bus1=2_290.1.2.3.4 Bus2=2_299.1.2.3.4 phases=4 Linecode=LC3 Length=0.71512 Units=m
New Line.LINE_2_299 Bus1=2_291.1.2.3.4 Bus2=2_300.1.2.3.4 phases=4 Linecode=LC6 Length=0.2702 Units=m
New Line.LINE_2_300 Bus1=2_293.1.2.3.4 Bus2=2_301.1.2.3.4 phases=4 Linecode=LC6 Length=0.13647 Units=m
New Line.LINE_2_301 Bus1=2_294.1.2.3.4 Bus2=2_302.1.2.3.4 phases=4 Linecode=LC6 Length=0.28104 Units=m
New Line.LINE_2_302 Bus1=2_295.1.2.3.4 Bus2=2_303.1.2.3.4 phases=4 Linecode=LC3 Length=3.0506 Units=m
New Line.LINE_2_303 Bus1=2_296.1.2.3.4 Bus2=2_304.1.2.3.4 phases=4 Linecode=LC8 Length=0.3727 Units=m
New Line.LINE_2_304 Bus1=2_297.1.2.3.4 Bus2=2_305.1.2.3.4 phases=4 Linecode=LC3 Length=0.29557 Units=m
New Line.LINE_2_305 Bus1=2_298.1.2.3.4 Bus2=2_306.1.2.3.4 phases=4 Linecode=LC6 Length=0.22638 Units=m
New Line.LINE_2_306 Bus1=2_299.1.2.3.4 Bus2=2_307.1.2.3.4 phases=4 Linecode=LC3 Length=1.05 Units=m
New Line.LINE_2_307 Bus1=2_300.1.2.3.4 Bus2=2_308.1.2.3.4 phases=4 Linecode=LC6 Length=0.22062 Units=m
New Line.LINE_2_308 Bus1=2_301.1.2.3.4 Bus2=2_309.1.2.3.4 phases=4 Linecode=LC6 Length=0.80025 Units=m
New Line.LINE_2_309 Bus1=2_302.1.2.3.4 Bus2=2_310.1.2.3.4 phases=4 Linecode=LC6 Length=0.19873 Units=m
New Line.LINE_2_310 Bus1=2_303.1.2.3.4 Bus2=2_311.1.2.3.4 phases=4 Linecode=LC3 Length=1.1717 Units=m
New Line.LINE_2_311 Bus1=2_304.1.2.3.4 Bus2=2_312.1.2.3.4 phases=4 Linecode=LC8 Length=0.45283 Units=m
New Line.LINE_2_312 Bus1=2_305.1.2.3.4 Bus2=2_313.1.2.3.4 phases=4 Linecode=LC3 Length=0.34972 Units=m
New Line.LINE_2_313 Bus1=2_306.1.2.3.4 Bus2=2_314.1.2.3.4 phases=4 Linecode=LC6 Length=0.34976 Units=m
New Line.LINE_2_314 Bus1=2_307.1.2.3.4 Bus2=2_315.1.2.3.4 phases=4 Linecode=LC3 Length=0.8433 Units=m
New Line.LINE_2_315 Bus1=2_308.1.2.3.4 Bus2=2_316.1.2.3.4 phases=4 Linecode=LC6 Length=0.14001 Units=m
New Line.LINE_2_316 Bus1=2_309.1.2.3.4 Bus2=2_317.1.2.3.4 phases=4 Linecode=LC6 Length=4.8023 Units=m
New Line.LINE_2_317 Bus1=2_310.1.2.3.4 Bus2=2_318.1.2.3.4 phases=4 Linecode=LC6 Length=0.24537 Units=m
New Line.LINE_2_318 Bus1=2_311.1.2.3.4 Bus2=2_319.1.2.3.4 phases=4 Linecode=LC2 Length=7.9319 Units=m
New Line.LINE_2_319 Bus1=2_311.1.2.3.4 Bus2=2_320.1.2.3.4 phases=4 Linecode=LC3 Length=0.86868 Units=m
New Line.LINE_2_320 Bus1=2_312.1.2.3.4 Bus2=2_321.1.2.3.4 phases=4 Linecode=LC8 Length=0.41448 Units=m
New Line.LINE_2_321 Bus1=2_314.1.2.3.4 Bus2=2_322.1.2.3.4 phases=4 Linecode=LC6 Length=3.8953 Units=m
New Line.LINE_2_322 Bus1=2_315.1.2.3.4 Bus2=2_323.1.2.3.4 phases=4 Linecode=LC3 Length=0.86875 Units=m
New Line.LINE_2_323 Bus1=2_316.1.2.3.4 Bus2=2_324.1.2.3.4 phases=4 Linecode=LC6 Length=0.49368 Units=m
New Line.LINE_2_324 Bus1=2_318.1.2.3.4 Bus2=2_325.1.2.3.4 phases=4 Linecode=LC6 Length=0.23314 Units=m
New Line.LINE_2_325 Bus1=2_319.1.2.3.4 Bus2=2_326.1.2.3.4 phases=4 Linecode=LC2 Length=5.3493 Units=m
New Line.LINE_2_326 Bus1=2_319.1.2.3.4 Bus2=2_327.1.2.3.4 phases=4 Linecode=LC2 Length=5.3493 Units=m
New Line.LINE_2_327 Bus1=2_320.1.2.3.4 Bus2=2_328.1.2.3.4 phases=4 Linecode=LC3 Length=0.67887 Units=m
New Line.LINE_2_328 Bus1=2_321.1.2.3.4 Bus2=2_329.1.2.3.4 phases=4 Linecode=LC8 Length=0.56602 Units=m
New Line.LINE_2_329 Bus1=2_322.1.2.3.4 Bus2=2_330.1.2.3.4 phases=4 Linecode=LC6 Length=0.15988 Units=m
New Line.LINE_2_330 Bus1=2_323.1.2.3.4 Bus2=2_331.1.2.3.4 phases=4 Linecode=LC3 Length=0.8244 Units=m
New Line.LINE_2_331 Bus1=2_324.1.2.3.4 Bus2=2_332.1.2.3.4 phases=4 Linecode=LC6 Length=5.7252 Units=m
New Line.LINE_2_332 Bus1=2_325.1.2.3.4 Bus2=2_333.1.2.3.4 phases=4 Linecode=LC6 Length=0.19393 Units=m
New Line.LINE_2_333 Bus1=2_328.1.2.3.4 Bus2=2_334.1.2.3.4 phases=4 Linecode=LC3 Length=1.3548 Units=m
New Line.LINE_2_334 Bus1=2_329.1.2.3.4 Bus2=2_335.1.2.3.4 phases=4 Linecode=LC8 Length=2.1841 Units=m
New Line.LINE_2_335 Bus1=2_330.1.2.3.4 Bus2=2_336.1.2.3.4 phases=4 Linecode=LC6 Length=0.21537 Units=m
New Line.LINE_2_336 Bus1=2_331.1.2.3.4 Bus2=2_337.1.2.3.4 phases=4 Linecode=LC3 Length=6.1793 Units=m
New Line.LINE_2_337 Bus1=2_331.1.2.3.4 Bus2=2_338.1.2.3.4 phases=4 Linecode=LC3 Length=1.019 Units=m
New Line.LINE_2_338 Bus1=2_333.1.2.3.4 Bus2=2_339.1.2.3.4 phases=4 Linecode=LC6 Length=0.36749 Units=m
New Line.LINE_2_339 Bus1=2_334.1.2.3.4 Bus2=2_340.1.2.3.4 phases=4 Linecode=LC3 Length=0.8471 Units=m
New Line.LINE_2_340 Bus1=2_335.1.2.3.4 Bus2=2_341.1.2.3.4 phases=4 Linecode=LC8 Length=12.7317 Units=m
New Line.LINE_2_341 Bus1=2_336.1.2.3.4 Bus2=2_342.1.2.3.4 phases=4 Linecode=LC6 Length=0.18832 Units=m
New Line.LINE_2_342 Bus1=2_337.1.2.3.4 Bus2=2_343.1.2.3.4 phases=4 Linecode=LC3 Length=0.53828 Units=m
New Line.LINE_2_343 Bus1=2_338.1.2.3.4 Bus2=2_344.1.2.3.4 phases=4 Linecode=LC3 Length=7.4447 Units=m
New Line.LINE_2_344 Bus1=2_339.1.2.3.4 Bus2=2_345.1.2.3.4 phases=4 Linecode=LC6 Length=2.66 Units=m
New Line.LINE_2_345 Bus1=2_340.1.2.3.4 Bus2=2_346.1.2.3.4 phases=4 Linecode=LC3 Length=1.234 Units=m
New Line.LINE_2_346 Bus1=2_341.1.2.3.4 Bus2=2_347.1.2.3.4 phases=4 Linecode=LC8 Length=0.43233 Units=m
New Line.LINE_2_347 Bus1=2_342.1.2.3.4 Bus2=2_348.1.2.3.4 phases=4 Linecode=LC6 Length=0.21465 Units=m
New Line.LINE_2_348 Bus1=2_343.1.2.3.4 Bus2=2_349.1.2.3.4 phases=4 Linecode=LC3 Length=0.45839 Units=m
New Line.LINE_2_349 Bus1=2_344.1.2.3.4 Bus2=2_350.1.2.3.4 phases=4 Linecode=LC6 Length=6.8184 Units=m
New Line.LINE_2_350 Bus1=2_344.1.2.3.4 Bus2=2_351.1.2.3.4 phases=4 Linecode=LC3 Length=13.1234 Units=m
New Line.LINE_2_351 Bus1=2_346.1.2.3.4 Bus2=2_352.1.2.3.4 phases=4 Linecode=LC3 Length=0.77824 Units=m
New Line.LINE_2_352 Bus1=2_347.1.2.3.4 Bus2=2_353.1.2.3.4 phases=4 Linecode=LC8 Length=0.44263 Units=m
New Line.LINE_2_353 Bus1=2_348.1.2.3.4 Bus2=2_354.1.2.3.4 phases=4 Linecode=LC6 Length=0.522 Units=m
New Line.LINE_2_354 Bus1=2_349.1.2.3.4 Bus2=2_355.1.2.3.4 phases=4 Linecode=LC3 Length=0.40447 Units=m
New Line.LINE_2_355 Bus1=2_350.1.2.3.4 Bus2=2_356.1.2.3.4 phases=4 Linecode=LC6 Length=5.6049 Units=m
New Line.LINE_2_356 Bus1=2_351.1.2.3.4 Bus2=2_357.1.2.3.4 phases=4 Linecode=LC6 Length=6.7441 Units=m
New Line.LINE_2_357 Bus1=2_351.1.2.3.4 Bus2=2_358.1.2.3.4 phases=4 Linecode=LC3 Length=3.0093 Units=m
New Line.LINE_2_358 Bus1=2_352.1.2.3.4 Bus2=2_359.1.2.3.4 phases=4 Linecode=LC3 Length=0.65613 Units=m
New Line.LINE_2_359 Bus1=2_353.1.2.3.4 Bus2=2_360.1.2.3.4 phases=4 Linecode=LC8 Length=0.54267 Units=m
New Line.LINE_2_360 Bus1=2_354.1.2.3.4 Bus2=2_361.1.2.3.4 phases=4 Linecode=LC6 Length=1.0967 Units=m
New Line.LINE_2_361 Bus1=2_354.1.2.3.4 Bus2=2_362.1.2.3.4 phases=4 Linecode=LC6 Length=1.0967 Units=m
New Line.LINE_2_362 Bus1=2_355.1.2.3.4 Bus2=2_363.1.2.3.4 phases=4 Linecode=LC3 Length=0.43584 Units=m
New Line.LINE_2_363 Bus1=2_357.1.2.3.4 Bus2=2_364.1.2.3.4 phases=4 Linecode=LC6 Length=5.499 Units=m
New Line.LINE_2_364 Bus1=2_358.1.2.3.4 Bus2=2_365.1.2.3.4 phases=4 Linecode=LC3 Length=0.19818 Units=m
New Line.LINE_2_365 Bus1=2_358.1.2.3.4 Bus2=2_366.1.2.3.4 phases=4 Linecode=LC3 Length=2.8695 Units=m
New Line.LINE_2_366 Bus1=2_359.1.2.3.4 Bus2=2_367.1.2.3.4 phases=4 Linecode=LC3 Length=1.244 Units=m
New Line.LINE_2_367 Bus1=2_360.1.2.3.4 Bus2=2_368.1.2.3.4 phases=4 Linecode=LC8 Length=7.6605 Units=m
New Line.LINE_2_368 Bus1=2_363.1.2.3.4 Bus2=2_369.1.2.3.4 phases=4 Linecode=LC3 Length=0.64086 Units=m
New Line.LINE_2_369 Bus1=2_365.1.2.3.4 Bus2=2_370.1.2.3.4 phases=4 Linecode=LC3 Length=0.13294 Units=m
New Line.LINE_2_370 Bus1=2_366.1.2.3.4 Bus2=2_371.1.2.3.4 phases=4 Linecode=LC6 Length=2.1311 Units=m
New Line.LINE_2_371 Bus1=2_366.1.2.3.4 Bus2=2_372.1.2.3.4 phases=4 Linecode=LC3 Length=1.4344 Units=m
New Line.LINE_2_372 Bus1=2_367.1.2.3.4 Bus2=2_373.1.2.3.4 phases=4 Linecode=LC3 Length=2.0093 Units=m
New Line.LINE_2_373 Bus1=2_368.1.2.3.4 Bus2=2_374.1.2.3.4 phases=4 Linecode=LC8 Length=0.2452 Units=m
New Line.LINE_2_374 Bus1=2_369.1.2.3.4 Bus2=2_375.1.2.3.4 phases=4 Linecode=LC3 Length=0.54603 Units=m
New Line.LINE_2_375 Bus1=2_370.1.2.3.4 Bus2=2_376.1.2.3.4 phases=4 Linecode=LC3 Length=0.21225 Units=m
New Line.LINE_2_376 Bus1=2_371.1.2.3.4 Bus2=2_377.1.2.3.4 phases=4 Linecode=LC6 Length=0.51751 Units=m
New Line.LINE_2_377 Bus1=2_373.1.2.3.4 Bus2=2_378.1.2.3.4 phases=4 Linecode=LC3 Length=2.4825 Units=m
New Line.LINE_2_378 Bus1=2_374.1.2.3.4 Bus2=2_379.1.2.3.4 phases=4 Linecode=LC8 Length=0.055946 Units=m
New Line.LINE_2_379 Bus1=2_375.1.2.3.4 Bus2=2_380.1.2.3.4 phases=4 Linecode=LC3 Length=0.73814 Units=m
New Line.LINE_2_380 Bus1=2_376.1.2.3.4 Bus2=2_381.1.2.3.4 phases=4 Linecode=LC3 Length=0.17156 Units=m
New Line.LINE_2_381 Bus1=2_377.1.2.3.4 Bus2=2_382.1.2.3.4 phases=4 Linecode=LC6 Length=0.26011 Units=m
New Line.LINE_2_382 Bus1=2_378.1.2.3.4 Bus2=2_383.1.2.3.4 phases=4 Linecode=LC3 Length=3.4195 Units=m
New Line.LINE_2_383 Bus1=2_379.1.2.3.4 Bus2=2_384.1.2.3.4 phases=4 Linecode=LC8 Length=0.072402 Units=m
New Line.LINE_2_384 Bus1=2_380.1.2.3.4 Bus2=2_385.1.2.3.4 phases=4 Linecode=LC3 Length=7.4321 Units=m
New Line.LINE_2_385 Bus1=2_381.1.2.3.4 Bus2=2_386.1.2.3.4 phases=4 Linecode=LC3 Length=0.17831 Units=m
New Line.LINE_2_386 Bus1=2_382.1.2.3.4 Bus2=2_387.1.2.3.4 phases=4 Linecode=LC6 Length=0.2452 Units=m
New Line.LINE_2_387 Bus1=2_383.1.2.3.4 Bus2=2_388.1.2.3.4 phases=4 Linecode=LC3 Length=2.8291 Units=m
New Line.LINE_2_388 Bus1=2_384.1.2.3.4 Bus2=2_389.1.2.3.4 phases=4 Linecode=LC8 Length=0.073246 Units=m
New Line.LINE_2_389 Bus1=2_385.1.2.3.4 Bus2=2_390.1.2.3.4 phases=4 Linecode=LC3 Length=0.35124 Units=m
New Line.LINE_2_390 Bus1=2_386.1.2.3.4 Bus2=2_391.1.2.3.4 phases=4 Linecode=LC3 Length=0.14958 Units=m
New Line.LINE_2_391 Bus1=2_387.1.2.3.4 Bus2=2_392.1.2.3.4 phases=4 Linecode=LC6 Length=0.21019 Units=m
New Line.LINE_2_392 Bus1=2_388.1.2.3.4 Bus2=2_393.1.2.3.4 phases=4 Linecode=LC6 Length=6.068 Units=m
New Line.LINE_2_393 Bus1=2_388.1.2.3.4 Bus2=2_394.1.2.3.4 phases=4 Linecode=LC3 Length=3.6437 Units=m
New Line.LINE_2_394 Bus1=2_389.1.2.3.4 Bus2=2_395.1.2.3.4 phases=4 Linecode=LC8 Length=0.087658 Units=m
New Line.LINE_2_395 Bus1=2_390.1.2.3.4 Bus2=2_396.1.2.3.4 phases=4 Linecode=LC3 Length=1.351 Units=m
New Line.LINE_2_396 Bus1=2_391.1.2.3.4 Bus2=2_397.1.2.3.4 phases=4 Linecode=LC3 Length=0.9712 Units=m
New Line.LINE_2_397 Bus1=2_392.1.2.3.4 Bus2=2_398.1.2.3.4 phases=4 Linecode=LC6 Length=0.44931 Units=m
New Line.LINE_2_398 Bus1=2_393.1.2.3.4 Bus2=2_399.1.2.3.4 phases=4 Linecode=LC6 Length=4.0569 Units=m
New Line.LINE_2_399 Bus1=2_394.1.2.3.4 Bus2=2_400.1.2.3.4 phases=4 Linecode=LC3 Length=2.6562 Units=m
New Line.LINE_2_400 Bus1=2_395.1.2.3.4 Bus2=2_401.1.2.3.4 phases=4 Linecode=LC8 Length=0.090139 Units=m
New Line.LINE_2_401 Bus1=2_398.1.2.3.4 Bus2=2_402.1.2.3.4 phases=4 Linecode=LC6 Length=1.0331 Units=m
New Line.LINE_2_402 Bus1=2_400.1.2.3.4 Bus2=2_403.1.2.3.4 phases=4 Linecode=LC3 Length=5.9147 Units=m
New Line.LINE_2_403 Bus1=2_401.1.2.3.4 Bus2=2_404.1.2.3.4 phases=4 Linecode=LC8 Length=0.14013 Units=m
New Line.LINE_2_404 Bus1=2_402.1.2.3.4 Bus2=2_405.1.2.3.4 phases=4 Linecode=LC6 Length=0.77086 Units=m
New Line.LINE_2_405 Bus1=2_403.1.2.3.4 Bus2=2_406.1.2.3.4 phases=4 Linecode=LC6 Length=5.2004 Units=m
New Line.LINE_2_406 Bus1=2_403.1.2.3.4 Bus2=2_407.1.2.3.4 phases=4 Linecode=LC3 Length=1.6967 Units=m
New Line.LINE_2_407 Bus1=2_404.1.2.3.4 Bus2=2_408.1.2.3.4 phases=4 Linecode=LC8 Length=0.34266 Units=m
New Line.LINE_2_408 Bus1=2_405.1.2.3.4 Bus2=2_409.1.2.3.4 phases=4 Linecode=LC6 Length=0.36628 Units=m
New Line.LINE_2_409 Bus1=2_406.1.2.3.4 Bus2=2_410.1.2.3.4 phases=4 Linecode=LC6 Length=0.86161 Units=m
New Line.LINE_2_410 Bus1=2_406.1.2.3.4 Bus2=2_411.1.2.3.4 phases=4 Linecode=LC6 Length=0.85918 Units=m
New Line.LINE_2_411 Bus1=2_407.1.2.3.4 Bus2=2_412.1.2.3.4 phases=4 Linecode=LC3 Length=8.3989 Units=m
New Line.LINE_2_412 Bus1=2_408.1.2.3.4 Bus2=2_413.1.2.3.4 phases=4 Linecode=LC8 Length=0.79546 Units=m
New Line.LINE_2_413 Bus1=2_409.1.2.3.4 Bus2=2_414.1.2.3.4 phases=4 Linecode=LC6 Length=0.2531 Units=m
New Line.LINE_2_414 Bus1=2_410.1.2.3.4 Bus2=2_415.1.2.3.4 phases=4 Linecode=LC6 Length=5.6278 Units=m
New Line.LINE_2_415 Bus1=2_411.1.2.3.4 Bus2=2_416.1.2.3.4 phases=4 Linecode=LC6 Length=0.35116 Units=m
New Line.LINE_2_416 Bus1=2_412.1.2.3.4 Bus2=2_417.1.2.3.4 phases=4 Linecode=LC3 Length=2.446 Units=m
New Line.LINE_2_417 Bus1=2_413.1.2.3.4 Bus2=2_418.1.2.3.4 phases=4 Linecode=LC8 Length=1.7136 Units=m
New Line.LINE_2_418 Bus1=2_414.1.2.3.4 Bus2=2_419.1.2.3.4 phases=4 Linecode=LC6 Length=0.30959 Units=m
New Line.LINE_2_419 Bus1=2_416.1.2.3.4 Bus2=2_420.1.2.3.4 phases=4 Linecode=LC6 Length=0.17651 Units=m
New Line.LINE_2_420 Bus1=2_417.1.2.3.4 Bus2=2_421.1.2.3.4 phases=4 Linecode=LC3 Length=2.1229 Units=m
New Line.LINE_2_421 Bus1=2_418.1.2.3.4 Bus2=2_422.1.2.3.4 phases=4 Linecode=LC8 Length=0.09434 Units=m
New Line.LINE_2_422 Bus1=2_419.1.2.3.4 Bus2=2_423.1.2.3.4 phases=4 Linecode=LC6 Length=2.3991 Units=m
New Line.LINE_2_423 Bus1=2_420.1.2.3.4 Bus2=2_424.1.2.3.4 phases=4 Linecode=LC6 Length=0.10107 Units=m
New Line.LINE_2_424 Bus1=2_421.1.2.3.4 Bus2=2_425.1.2.3.4 phases=4 Linecode=LC3 Length=2.5729 Units=m
New Line.LINE_2_425 Bus1=2_421.1.2.3.4 Bus2=2_426.1.2.3.4 phases=4 Linecode=LC6 Length=5.2133 Units=m
New Line.LINE_2_426 Bus1=2_422.1.2.3.4 Bus2=2_427.1.2.3.4 phases=4 Linecode=LC8 Length=0.098838 Units=m
New Line.LINE_2_427 Bus1=2_423.1.2.3.4 Bus2=2_428.1.2.3.4 phases=4 Linecode=LC6 Length=0.35512 Units=m
New Line.LINE_2_428 Bus1=2_424.1.2.3.4 Bus2=2_429.1.2.3.4 phases=4 Linecode=LC6 Length=0.12143 Units=m
New Line.LINE_2_429 Bus1=2_425.1.2.3.4 Bus2=2_430.1.2.3.4 phases=4 Linecode=LC3 Length=3.6289 Units=m
New Line.LINE_2_430 Bus1=2_425.1.2.3.4 Bus2=2_431.1.2.3.4 phases=4 Linecode=LC3 Length=0.48941 Units=m
New Line.LINE_2_431 Bus1=2_426.1.2.3.4 Bus2=2_432.1.2.3.4 phases=4 Linecode=LC6 Length=1.079 Units=m
New Line.LINE_2_432 Bus1=2_426.1.2.3.4 Bus2=2_433.1.2.3.4 phases=4 Linecode=LC6 Length=1.08 Units=m
New Line.LINE_2_433 Bus1=2_427.1.2.3.4 Bus2=2_434.1.2.3.4 phases=4 Linecode=LC8 Length=0.083024 Units=m
New Line.LINE_2_434 Bus1=2_428.1.2.3.4 Bus2=2_435.1.2.3.4 phases=4 Linecode=LC6 Length=0.17923 Units=m
New Line.LINE_2_435 Bus1=2_429.1.2.3.4 Bus2=2_436.1.2.3.4 phases=4 Linecode=LC6 Length=0.618 Units=m
New Line.LINE_2_436 Bus1=2_430.1.2.3.4 Bus2=2_437.1.2.3.4 phases=4 Linecode=LC3 Length=2.7415 Units=m
New Line.LINE_2_437 Bus1=2_431.1.2.3.4 Bus2=2_438.1.2.3.4 phases=4 Linecode=LC3 Length=4.3441 Units=m
New Line.LINE_2_438 Bus1=2_432.1.2.3.4 Bus2=2_439.1.2.3.4 phases=4 Linecode=LC6 Length=0.16006 Units=m
New Line.LINE_2_439 Bus1=2_433.1.2.3.4 Bus2=2_440.1.2.3.4 phases=4 Linecode=LC6 Length=5.257 Units=m
New Line.LINE_2_440 Bus1=2_434.1.2.3.4 Bus2=2_441.1.2.3.4 phases=4 Linecode=LC8 Length=0.10977 Units=m
New Line.LINE_2_441 Bus1=2_435.1.2.3.4 Bus2=2_442.1.2.3.4 phases=4 Linecode=LC6 Length=0.066468 Units=m
New Line.LINE_2_442 Bus1=2_436.1.2.3.4 Bus2=2_443.1.2.3.4 phases=4 Linecode=LC6 Length=4.8319 Units=m
New Line.LINE_2_443 Bus1=2_437.1.2.3.4 Bus2=2_444.1.2.3.4 phases=4 Linecode=LC3 Length=1.9396 Units=m
New Line.LINE_2_444 Bus1=2_438.1.2.3.4 Bus2=2_445.1.2.3.4 phases=4 Linecode=LC3 Length=0.72958 Units=m
New Line.LINE_2_445 Bus1=2_439.1.2.3.4 Bus2=2_446.1.2.3.4 phases=4 Linecode=LC6 Length=0.078262 Units=m
New Line.LINE_2_446 Bus1=2_441.1.2.3.4 Bus2=2_447.1.2.3.4 phases=4 Linecode=LC8 Length=1.6719 Units=m
New Line.LINE_2_447 Bus1=2_442.1.2.3.4 Bus2=2_448.1.2.3.4 phases=4 Linecode=LC6 Length=0.14863 Units=m
New Line.LINE_2_448 Bus1=2_444.1.2.3.4 Bus2=2_449.1.2.3.4 phases=4 Linecode=LC3 Length=1.9092 Units=m
New Line.LINE_2_449 Bus1=2_445.1.2.3.4 Bus2=2_450.1.2.3.4 phases=4 Linecode=LC3 Length=1.201 Units=m
New Line.LINE_2_450 Bus1=2_446.1.2.3.4 Bus2=2_451.1.2.3.4 phases=4 Linecode=LC6 Length=0.14863 Units=m
New Line.LINE_2_451 Bus1=2_448.1.2.3.4 Bus2=2_452.1.2.3.4 phases=4 Linecode=LC6 Length=0.611 Units=m
New Line.LINE_2_452 Bus1=2_449.1.2.3.4 Bus2=2_453.1.2.3.4 phases=4 Linecode=LC3 Length=2.0202 Units=m
New Line.LINE_2_453 Bus1=2_451.1.2.3.4 Bus2=2_454.1.2.3.4 phases=4 Linecode=LC6 Length=0.164 Units=m
New Line.LINE_2_454 Bus1=2_452.1.2.3.4 Bus2=2_455.1.2.3.4 phases=4 Linecode=LC6 Length=5.158 Units=m
New Line.LINE_2_455 Bus1=2_452.1.2.3.4 Bus2=2_456.1.2.3.4 phases=4 Linecode=LC6 Length=5.158 Units=m
New Line.LINE_2_456 Bus1=2_453.1.2.3.4 Bus2=2_457.1.2.3.4 phases=4 Linecode=LC3 Length=1.2361 Units=m
New Line.LINE_2_457 Bus1=2_454.1.2.3.4 Bus2=2_458.1.2.3.4 phases=4 Linecode=LC6 Length=0.61012 Units=m
New Line.LINE_2_458 Bus1=2_457.1.2.3.4 Bus2=2_459.1.2.3.4 phases=4 Linecode=LC3 Length=2.5823 Units=m
New Line.LINE_2_459 Bus1=2_457.1.2.3.4 Bus2=2_460.1.2.3.4 phases=4 Linecode=LC6 Length=4.7429 Units=m
New Line.LINE_2_460 Bus1=2_458.1.2.3.4 Bus2=2_461.1.2.3.4 phases=4 Linecode=LC6 Length=5.1151 Units=m
New Line.LINE_2_461 Bus1=2_459.1.2.3.4 Bus2=2_462.1.2.3.4 phases=4 Linecode=LC3 Length=1.5639 Units=m
New Line.LINE_2_462 Bus1=2_460.1.2.3.4 Bus2=2_463.1.2.3.4 phases=4 Linecode=LC6 Length=0.45846 Units=m
New Line.LINE_2_463 Bus1=2_462.1.2.3.4 Bus2=2_464.1.2.3.4 phases=4 Linecode=LC3 Length=1.6957 Units=m
New Line.LINE_2_464 Bus1=2_463.1.2.3.4 Bus2=2_465.1.2.3.4 phases=4 Linecode=LC6 Length=0.23692 Units=m
New Line.LINE_2_465 Bus1=2_464.1.2.3.4 Bus2=2_466.1.2.3.4 phases=4 Linecode=LC3 Length=1.2335 Units=m
New Line.LINE_2_466 Bus1=2_465.1.2.3.4 Bus2=2_467.1.2.3.4 phases=4 Linecode=LC6 Length=0.51779 Units=m
New Line.LINE_2_467 Bus1=2_466.1.2.3.4 Bus2=2_468.1.2.3.4 phases=4 Linecode=LC3 Length=1.744 Units=m
New Line.LINE_2_468 Bus1=2_467.1.2.3.4 Bus2=2_469.1.2.3.4 phases=4 Linecode=LC6 Length=5.3108 Units=m
New Line.LINE_2_469 Bus1=2_468.1.2.3.4 Bus2=2_470.1.2.3.4 phases=4 Linecode=LC3 Length=2.2639 Units=m
New Line.LINE_2_470 Bus1=2_470.1.2.3.4 Bus2=2_471.1.2.3.4 phases=4 Linecode=LC3 Length=1.5627 Units=m
New Line.LINE_2_471 Bus1=2_471.1.2.3.4 Bus2=2_472.1.2.3.4 phases=4 Linecode=LC3 Length=2.6474 Units=m
New Line.LINE_2_472 Bus1=2_471.1.2.3.4 Bus2=2_473.1.2.3.4 phases=4 Linecode=LC6 Length=6.4848 Units=m
New Line.LINE_2_473 Bus1=2_472.1.2.3.4 Bus2=2_474.1.2.3.4 phases=4 Linecode=LC3 Length=0.772 Units=m
New Line.LINE_2_474 Bus1=2_472.1.2.3.4 Bus2=2_475.1.2.3.4 phases=4 Linecode=LC6 Length=0.2158 Units=m
New Line.LINE_2_475 Bus1=2_472.1.2.3.4 Bus2=2_476.1.2.3.4 phases=4 Linecode=LC6 Length=6.5334 Units=m
New Line.LINE_2_476 Bus1=2_473.1.2.3.4 Bus2=2_477.1.2.3.4 phases=4 Linecode=LC6 Length=5.4074 Units=m
New Line.LINE_2_477 Bus1=2_475.1.2.3.4 Bus2=2_478.1.2.3.4 phases=4 Linecode=LC6 Length=0.11709 Units=m
New Line.LINE_2_478 Bus1=2_476.1.2.3.4 Bus2=2_479.1.2.3.4 phases=4 Linecode=LC6 Length=5.2894 Units=m
New Line.LINE_2_479 Bus1=2_478.1.2.3.4 Bus2=2_480.1.2.3.4 phases=4 Linecode=LC6 Length=0.10141 Units=m
New Line.LINE_2_480 Bus1=2_480.1.2.3.4 Bus2=2_481.1.2.3.4 phases=4 Linecode=LC6 Length=0.24452 Units=m
New Line.LINE_2_481 Bus1=2_481.1.2.3.4 Bus2=2_482.1.2.3.4 phases=4 Linecode=LC6 Length=0.15473 Units=m
New Line.LINE_2_482 Bus1=2_482.1.2.3.4 Bus2=2_483.1.2.3.4 phases=4 Linecode=LC6 Length=0.16227 Units=m
New Line.LINE_2_483 Bus1=2_483.1.2.3.4 Bus2=2_484.1.2.3.4 phases=4 Linecode=LC6 Length=0.18588 Units=m
New Line.LINE_2_484 Bus1=2_484.1.2.3.4 Bus2=2_485.1.2.3.4 phases=4 Linecode=LC6 Length=0.23497 Units=m
New Line.LINE_2_485 Bus1=2_485.1.2.3.4 Bus2=2_486.1.2.3.4 phases=4 Linecode=LC6 Length=0.26042 Units=m
New Line.LINE_2_486 Bus1=2_486.1.2.3.4 Bus2=2_487.1.2.3.4 phases=4 Linecode=LC6 Length=0.21893 Units=m
New Line.LINE_2_487 Bus1=2_487.1.2.3.4 Bus2=2_488.1.2.3.4 phases=4 Linecode=LC6 Length=0.17918 Units=m
New Line.LINE_2_488 Bus1=2_488.1.2.3.4 Bus2=2_489.1.2.3.4 phases=4 Linecode=LC6 Length=3.9787 Units=m
New Line.LINE_2_489 Bus1=2_489.1.2.3.4 Bus2=2_490.1.2.3.4 phases=4 Linecode=LC6 Length=0.30787 Units=m
New Line.LINE_2_490 Bus1=2_490.1.2.3.4 Bus2=2_491.1.2.3.4 phases=4 Linecode=LC6 Length=0.25303 Units=m
New Line.LINE_2_491 Bus1=2_491.1.2.3.4 Bus2=2_492.1.2.3.4 phases=4 Linecode=LC6 Length=0.289 Units=m
New Line.LINE_2_492 Bus1=2_492.1.2.3.4 Bus2=2_493.1.2.3.4 phases=4 Linecode=LC6 Length=0.29785 Units=m
New Line.LINE_2_493 Bus1=2_493.1.2.3.4 Bus2=2_494.1.2.3.4 phases=4 Linecode=LC6 Length=0.44073 Units=m
New Line.LINE_2_494 Bus1=2_494.1.2.3.4 Bus2=2_495.1.2.3.4 phases=4 Linecode=LC6 Length=5.1036 Units=m
New Line.LINE_2_495 Bus1=2_495.1.2.3.4 Bus2=2_496.1.2.3.4 phases=4 Linecode=LC6 Length=0.074007 Units=m
New Line.LINE_2_496 Bus1=2_496.1.2.3.4 Bus2=2_497.1.2.3.4 phases=4 Linecode=LC6 Length=0.044385 Units=m
New Line.LINE_2_497 Bus1=2_497.1.2.3.4 Bus2=2_498.1.2.3.4 phases=4 Linecode=LC6 Length=0.10794 Units=m
New Line.LINE_2_498 Bus1=2_498.1.2.3.4 Bus2=2_499.1.2.3.4 phases=4 Linecode=LC6 Length=0.13695 Units=m
New Line.LINE_2_499 Bus1=2_499.1.2.3.4 Bus2=2_500.1.2.3.4 phases=4 Linecode=LC6 Length=0.13382 Units=m
New Line.LINE_2_500 Bus1=2_500.1.2.3.4 Bus2=2_501.1.2.3.4 phases=4 Linecode=LC6 Length=0.068622 Units=m
New Line.LINE_2_501 Bus1=2_501.1.2.3.4 Bus2=2_502.1.2.3.4 phases=4 Linecode=LC6 Length=0.098387 Units=m
New Line.LINE_2_502 Bus1=2_502.1.2.3.4 Bus2=2_503.1.2.3.4 phases=4 Linecode=LC6 Length=0.153 Units=m
New Line.LINE_2_503 Bus1=2_503.1.2.3.4 Bus2=2_504.1.2.3.4 phases=4 Linecode=LC6 Length=0.38204 Units=m
New Line.LINE_2_504 Bus1=2_504.1.2.3.4 Bus2=2_505.1.2.3.4 phases=4 Linecode=LC6 Length=0.3396 Units=m
! ----------------------------------------------------------------------------------------------